<net xmlns:xsi="http://www.w3.org/2001/XMLSchema-instance" version="0.13" xsi:noNamespaceSchemaLocation="http://sumo.sf.net/xsd/net_file.xsd">
  <location convBoundary="0.00,0.00,2178.53,1867.56" netOffset="-622377.96,-5868657.80" origBoundary="-1.177894,52.953189,-1.145835,52.969974" projParameter="+proj=utm +zone=30 +ellps=WGS84 +datum=WGS84 +units=m +no_defs" />
  <edge function="internal" id=":1035308121_0">
    <lane id=":1035308121_0_0" index="0" length="0.10" shape="1204.16,924.07 1204.08,924.03" speed="13.89" />
  </edge>
  <edge function="internal" id=":1035308121_1">
    <lane id=":1035308121_1_0" index="0" length="2.41" shape="1204.16,924.07 1203.44,922.77 1203.46,921.84" speed="13.89" />
  </edge>
  <edge function="internal" id=":1035308121_4">
    <lane id=":1035308121_4_0" index="0" length="2.41" shape="1203.46,921.84 1204.21,921.30 1205.68,921.14" speed="13.89" />
  </edge>
  <edge function="internal" id=":1035308121_2">
    <lane id=":1035308121_2_0" index="0" length="0.10" shape="1205.76,921.19 1205.68,921.14" speed="13.89" />
  </edge>
  <edge function="internal" id=":1035308121_3">
    <lane id=":1035308121_3_0" index="0" length="2.41" shape="1205.76,921.19 1206.41,922.53 1206.34,923.45" speed="13.89" />
  </edge>
  <edge function="internal" id=":1035308121_5">
    <lane id=":1035308121_5_0" index="0" length="2.41" shape="1206.34,923.45 1205.57,923.95 1204.08,924.03" speed="13.89" />
  </edge>
  <edge function="internal" id=":1061186719_0">
    <lane id=":1061186719_0_0" index="0" length="10.83" shape="1608.01,149.35 1606.01,147.56 1605.93,145.03 1605.94,142.33 1604.18,140.02" speed="27.78" />
  </edge>
  <edge function="internal" id=":1061186719_1">
    <lane id=":1061186719_1_0" index="0" length="9.42" shape="1609.10,146.23 1606.08,137.31" speed="27.78" />
  </edge>
  <edge function="internal" id=":1061186719_2">
    <lane id=":1061186719_2_0" index="0" length="2.41" shape="1609.10,146.23 1608.20,145.05 1608.08,144.13" speed="27.78" />
  </edge>
  <edge function="internal" id=":1061186719_6">
    <lane id=":1061186719_6_0" index="0" length="2.41" shape="1608.08,144.13 1608.74,143.49 1610.18,143.12" speed="27.78" />
  </edge>
  <edge function="internal" id=":1061186719_3">
    <lane id=":1061186719_3_0" index="0" length="14.65" shape="1596.96,142.33 1603.46,143.29 1606.83,143.23 1607.07,142.14 1604.18,140.02" speed="27.78" />
  </edge>
  <edge function="internal" id=":1061186719_4">
    <lane id=":1061186719_4_0" index="0" length="16.75" shape="1596.37,145.57 1600.94,144.94 1603.93,142.35 1606.87,139.97 1611.26,140.00" speed="27.78" />
  </edge>
  <edge function="internal" id=":1061186719_5">
    <lane id=":1061186719_5_0" index="0" length="14.44" shape="1596.37,145.57 1600.50,145.40 1603.38,143.96 1606.20,142.71 1610.18,143.12" speed="27.78" />
  </edge>
  <edge function="internal" id=":1061186801_0">
    <lane id=":1061186801_0_0" index="0" length="4.82" shape="1607.10,565.67 1605.69,565.21 1605.07,564.53 1605.24,563.62 1606.21,562.49" speed="5.56" />
  </edge>
  <edge function="internal" id=":1061186904_0">
    <lane id=":1061186904_0_0" index="0" length="3.20" shape="1783.83,187.92 1780.68,187.35" speed="27.78" />
  </edge>
  <edge function="internal" id=":1061186904_1">
    <lane id=":1061186904_1_0" index="0" length="3.63" shape="1784.62,184.72 1781.05,184.07" speed="27.78" />
  </edge>
  <edge function="internal" id=":1061186904_2">
    <lane id=":1061186904_2_0" index="0" length="3.81" shape="1784.28,186.09 1781.05,184.07" speed="25.00" />
  </edge>
  <edge function="internal" id=":1061187047_0">
    <lane id=":1061187047_0_0" index="0" length="6.86" shape="1938.28,710.13 1938.57,703.28" speed="22.22" />
  </edge>
  <edge function="internal" id=":1061187047_1">
    <lane id=":1061187047_1_0" index="0" length="7.26" shape="1933.27,707.91 1934.65,707.47 1935.99,706.56 1937.30,705.16 1938.57,703.28" speed="22.22" />
  </edge>
  <edge function="internal" id=":1061187611_0">
    <lane id=":1061187611_0_0" index="0" length="5.37" shape="1617.61,549.90 1617.47,548.42 1616.85,547.49 1615.74,547.12 1614.15,547.29" speed="13.89" />
  </edge>
  <edge function="internal" id=":1061187611_1">
    <lane id=":1061187611_1_0" index="0" length="4.83" shape="1617.61,549.90 1618.38,548.62 1619.18,548.17 1620.03,548.54 1620.92,549.73" speed="5.56" />
  </edge>
  <edge function="internal" id=":1061187611_2">
    <lane id=":1061187611_2_0" index="0" length="5.86" shape="1623.39,544.80 1622.39,545.36 1621.65,546.37 1621.16,547.82 1620.92,549.73" speed="13.89" />
  </edge>
  <edge function="internal" id=":1061187611_3">
    <lane id=":1061187611_3_0" index="0" length="9.57" shape="1623.39,544.80 1614.15,547.29" speed="22.22" />
  </edge>
  <edge function="internal" id=":1061187673_0">
    <lane id=":1061187673_0_0" index="0" length="9.95" shape="1940.68,719.44 1932.21,714.22" speed="13.41" />
  </edge>
  <edge function="internal" id=":1061187673_1">
    <lane id=":1061187673_1_0" index="0" length="10.28" shape="1942.65,716.80 1940.36,714.75 1938.85,713.13 1937.17,711.93 1934.34,711.18" speed="13.41" />
  </edge>
  <edge function="internal" id=":1061187673_2">
    <lane id=":1061187673_2_0" index="0" length="7.79" shape="1942.65,716.80 1938.31,710.33" speed="17.82" />
  </edge>
  <edge function="internal" id=":1129303697_0">
    <lane id=":1129303697_0_0" index="0" length="2.95" shape="580.24,905.35 579.09,904.55 578.53,903.11" speed="13.89" />
  </edge>
  <edge function="internal" id=":1129303697_4">
    <lane id=":1129303697_4_0" index="0" length="4.88" shape="578.53,903.11 578.57,901.03 579.22,898.31" speed="13.89" />
  </edge>
  <edge function="internal" id=":1129303697_1">
    <lane id=":1129303697_1_0" index="0" length="2.41" shape="580.24,905.35 579.32,904.18 579.19,903.27" speed="13.89" />
  </edge>
  <edge function="internal" id=":1129303697_5">
    <lane id=":1129303697_5_0" index="0" length="2.41" shape="579.19,903.27 579.84,902.61 581.27,902.22" speed="13.89" />
  </edge>
  <edge function="internal" id=":1129303697_2">
    <lane id=":1129303697_2_0" index="0" length="9.47" shape="576.32,907.32 579.22,898.31" speed="13.89" />
  </edge>
  <edge function="internal" id=":1129303697_3">
    <lane id=":1129303697_3_0" index="0" length="7.84" shape="576.32,907.32 577.39,904.72 578.57,903.01 579.86,902.17 581.27,902.22" speed="13.89" />
  </edge>
  <edge function="internal" id=":1154244374_0">
    <lane id=":1154244374_0_0" index="0" length="9.73" shape="555.90,1051.31 552.73,1060.50" speed="13.89" />
  </edge>
  <edge function="internal" id=":1154244374_1">
    <lane id=":1154244374_1_0" index="0" length="7.31" shape="555.90,1051.31 554.62,1053.93 552.82,1055.47 550.84,1055.86" speed="13.89" />
  </edge>
  <edge function="internal" id=":1154244374_9">
    <lane id=":1154244374_9_0" index="0" length="3.27" shape="550.84,1055.86 550.50,1055.93 547.64,1055.30" speed="13.89" />
  </edge>
  <edge function="internal" id=":1154244374_2">
    <lane id=":1154244374_2_0" index="0" length="2.41" shape="555.90,1051.31 554.74,1052.23 553.83,1052.37" speed="13.89" />
  </edge>
  <edge function="internal" id=":1154244374_10">
    <lane id=":1154244374_10_0" index="0" length="2.41" shape="553.83,1052.37 553.17,1051.73 552.76,1050.30" speed="13.89" />
  </edge>
  <edge function="internal" id=":1154244374_3">
    <lane id=":1154244374_3_0" index="0" length="5.06" shape="548.81,1052.21 550.17,1052.51 551.29,1052.29 552.15,1051.56 552.76,1050.30" speed="13.89" />
  </edge>
  <edge function="internal" id=":1154244374_4">
    <lane id=":1154244374_4_0" index="0" length="10.45" shape="548.81,1052.21 551.36,1053.60 552.86,1055.44 553.32,1057.74 552.73,1060.50" speed="13.89" />
  </edge>
  <edge function="internal" id=":1154244374_5">
    <lane id=":1154244374_5_0" index="0" length="4.82" shape="548.81,1052.21 549.67,1053.42 549.77,1054.34 549.09,1054.96 547.64,1055.30" speed="13.89" />
  </edge>
  <edge function="internal" id=":1154244374_6">
    <lane id=":1154244374_6_0" index="0" length="5.15" shape="549.63,1059.35 549.91,1058.01 549.67,1056.89 548.92,1055.98 547.64,1055.30" speed="13.89" />
  </edge>
  <edge function="internal" id=":1154244374_7">
    <lane id=":1154244374_7_0" index="0" length="9.58" shape="549.63,1059.35 552.76,1050.30" speed="13.89" />
  </edge>
  <edge function="internal" id=":1154244374_8">
    <lane id=":1154244374_8_0" index="0" length="2.41" shape="549.63,1059.35 550.84,1058.48 551.76,1058.38" speed="13.89" />
  </edge>
  <edge function="internal" id=":1154244374_11">
    <lane id=":1154244374_11_0" index="0" length="2.41" shape="551.76,1058.38 552.39,1059.06 552.73,1060.50" speed="13.89" />
  </edge>
  <edge function="internal" id=":1154244386_0">
    <lane id=":1154244386_0_0" index="0" length="10.40" shape="598.85,1070.11 597.87,1072.98 597.17,1075.04 596.46,1077.08 595.47,1079.95" speed="22.22" />
  </edge>
  <edge function="internal" id=":1154244386_1">
    <lane id=":1154244386_1_0" index="0" length="7.85" shape="598.85,1070.11 597.07,1073.67 594.86,1075.21 593.69,1075.00" speed="18.06" />
  </edge>
  <edge function="internal" id=":1154244386_9">
    <lane id=":1154244386_9_0" index="0" length="5.49" shape="593.69,1075.00 592.21,1074.72 589.12,1072.22" speed="18.06" />
  </edge>
  <edge function="internal" id=":1154244386_2">
    <lane id=":1154244386_2_0" index="0" length="2.41" shape="598.85,1070.11 597.67,1071.02 596.75,1071.14" speed="22.22" />
  </edge>
  <edge function="internal" id=":1154244386_10">
    <lane id=":1154244386_10_0" index="0" length="2.41" shape="596.75,1071.14 596.10,1070.49 595.72,1069.05" speed="22.22" />
  </edge>
  <edge function="internal" id=":1154244386_3">
    <lane id=":1154244386_3_0" index="0" length="5.75" shape="591.53,1069.96 592.86,1071.04 594.00,1071.25 594.96,1070.58 595.72,1069.05" speed="18.06" />
  </edge>
  <edge function="internal" id=":1154244386_4">
    <lane id=":1154244386_4_0" index="0" length="11.25" shape="591.53,1069.96 593.81,1072.74 595.22,1075.34 595.77,1077.74 595.47,1079.95" speed="18.06" />
  </edge>
  <edge function="internal" id=":1154244386_5">
    <lane id=":1154244386_5_0" index="0" length="4.82" shape="591.53,1069.96 591.78,1071.42 591.46,1072.29 590.57,1072.55 589.12,1072.22" speed="13.89" />
  </edge>
  <edge function="internal" id=":1154244386_6">
    <lane id=":1154244386_6_0" index="0" length="7.67" shape="592.35,1078.85 592.46,1077.56 591.95,1076.03 590.84,1074.25 589.12,1072.22" speed="18.06" />
  </edge>
  <edge function="internal" id=":1154244386_7">
    <lane id=":1154244386_7_0" index="0" length="10.37" shape="592.35,1078.85 593.35,1076.00 594.05,1073.96 594.75,1071.92 595.72,1069.05" speed="22.22" />
  </edge>
  <edge function="internal" id=":1154244386_8">
    <lane id=":1154244386_8_0" index="0" length="2.41" shape="592.35,1078.85 593.54,1077.96 594.45,1077.84" speed="22.22" />
  </edge>
  <edge function="internal" id=":1154244386_11">
    <lane id=":1154244386_11_0" index="0" length="2.41" shape="594.45,1077.84 595.10,1078.51 595.47,1079.95" speed="22.22" />
  </edge>
  <edge function="internal" id=":1156236380_0">
    <lane id=":1156236380_0_0" index="0" length="0.32" shape="1088.30,301.21 1088.05,301.41" speed="27.78" />
  </edge>
  <edge function="internal" id=":1156236380_1">
    <lane id=":1156236380_1_0" index="0" length="0.98" shape="1086.49,298.45 1085.73,299.07" speed="27.78" />
  </edge>
  <edge function="internal" id=":1156236383_0">
    <lane id=":1156236383_0_0" index="0" length="0.10" shape="1057.80,332.36 1057.79,332.38" speed="27.78" />
  </edge>
  <edge function="internal" id=":1156236383_1">
    <lane id=":1156236383_1_0" index="0" length="0.10" shape="1059.77,335.01 1059.78,335.00" speed="27.78" />
  </edge>
  <edge function="internal" id=":1156236384_0">
    <lane id=":1156236384_0_0" index="0" length="1.29" shape="1034.02,245.56 1033.71,245.65 1033.43,245.80 1033.18,246.00 1032.98,246.26" speed="27.78" />
  </edge>
  <edge function="internal" id=":1156236384_1">
    <lane id=":1156236384_1_0" index="0" length="3.95" shape="1033.42,242.32 1032.45,242.60 1031.59,243.04 1030.85,243.66 1030.22,244.45" speed="27.78" />
  </edge>
  <edge function="internal" id=":1156236392_0">
    <lane id=":1156236392_0_0" index="0" length="0.10" shape="1020.99,242.93 1021.02,242.97" speed="13.41" />
  </edge>
  <edge function="internal" id=":1156236392_1">
    <lane id=":1156236392_1_0" index="0" length="0.16" shape="1018.48,245.08 1018.59,245.21" speed="13.41" />
  </edge>
  <edge function="internal" id=":1156236399_0">
    <lane id=":1156236399_0_0" index="0" length="0.38" shape="1082.69,259.07 1082.33,258.93" speed="13.41" />
  </edge>
  <edge function="internal" id=":1156236399_1">
    <lane id=":1156236399_1_0" index="0" length="0.12" shape="1083.79,255.96 1083.68,255.91" speed="13.41" />
  </edge>
  <edge function="internal" id=":1157849221_0">
    <lane id=":1157849221_0_0" index="0" length="9.50" shape="547.03,1027.56 540.48,1020.68" speed="13.89" />
  </edge>
  <edge function="internal" id=":1157849221_1">
    <lane id=":1157849221_1_0" index="0" length="7.16" shape="547.03,1027.56 545.35,1025.20 544.86,1022.89 545.42,1021.08" speed="9.72" />
  </edge>
  <edge function="internal" id=":1157849221_9">
    <lane id=":1157849221_9_0" index="0" length="3.37" shape="545.42,1021.08 545.56,1020.63 547.44,1018.43" speed="9.72" />
  </edge>
  <edge function="internal" id=":1157849221_2">
    <lane id=":1157849221_2_0" index="0" length="2.41" shape="547.03,1027.56 546.77,1026.10 547.09,1025.23" speed="13.89" />
  </edge>
  <edge function="internal" id=":1157849221_10">
    <lane id=":1157849221_10_0" index="0" length="2.41" shape="547.09,1025.23 547.97,1024.96 549.42,1025.29" speed="13.89" />
  </edge>
  <edge function="internal" id=":1157849221_3">
    <lane id=":1157849221_3_0" index="0" length="5.05" shape="549.62,1020.91 548.71,1021.97 548.38,1023.05 548.61,1024.16 549.42,1025.29" speed="9.72" />
  </edge>
  <edge function="internal" id=":1157849221_4">
    <lane id=":1157849221_4_0" index="0" length="10.33" shape="549.62,1020.91 547.22,1022.49 544.90,1022.98 542.65,1022.38 540.48,1020.68" speed="9.72" />
  </edge>
  <edge function="internal" id=":1157849221_5">
    <lane id=":1157849221_5_0" index="0" length="4.82" shape="549.62,1020.91 548.14,1021.10 547.29,1020.76 547.06,1019.86 547.44,1018.43" speed="5.56" />
  </edge>
  <edge function="internal" id=":1157849221_6">
    <lane id=":1157849221_6_0" index="0" length="5.17" shape="542.87,1018.40 543.94,1019.23 545.06,1019.51 546.23,1019.24 547.44,1018.43" speed="9.72" />
  </edge>
  <edge function="internal" id=":1157849221_7">
    <lane id=":1157849221_7_0" index="0" length="9.51" shape="542.87,1018.40 549.42,1025.29" speed="13.89" />
  </edge>
  <edge function="internal" id=":1157849221_8">
    <lane id=":1157849221_8_0" index="0" length="2.41" shape="542.87,1018.40 543.12,1019.87 542.81,1020.74" speed="13.89" />
  </edge>
  <edge function="internal" id=":1157849221_11">
    <lane id=":1157849221_11_0" index="0" length="2.41" shape="542.81,1020.74 541.93,1021.01 540.48,1020.68" speed="13.89" />
  </edge>
  <edge function="internal" id=":1157849237_0">
    <lane id=":1157849237_0_0" index="0" length="9.52" shape="572.26,1054.27 565.74,1047.34" speed="13.89" />
  </edge>
  <edge function="internal" id=":1157849237_1">
    <lane id=":1157849237_1_0" index="0" length="7.02" shape="572.26,1054.27 570.71,1052.04 570.24,1049.76 570.74,1047.84" speed="9.72" />
  </edge>
  <edge function="internal" id=":1157849237_9">
    <lane id=":1157849237_9_0" index="0" length="3.33" shape="570.74,1047.84 570.85,1047.43 572.53,1045.06" speed="9.72" />
  </edge>
  <edge function="internal" id=":1157849237_2">
    <lane id=":1157849237_2_0" index="0" length="2.41" shape="572.26,1054.27 572.01,1052.80 572.33,1051.94" speed="13.89" />
  </edge>
  <edge function="internal" id=":1157849237_10">
    <lane id=":1157849237_10_0" index="0" length="2.41" shape="572.33,1051.94 573.21,1051.67 574.66,1052.01" speed="13.89" />
  </edge>
  <edge function="internal" id=":1157849237_3">
    <lane id=":1157849237_3_0" index="0" length="5.30" shape="574.95,1047.30 574.05,1048.54 573.71,1049.74 573.91,1050.90 574.66,1052.01" speed="9.72" />
  </edge>
  <edge function="internal" id=":1157849237_4">
    <lane id=":1157849237_4_0" index="0" length="10.68" shape="574.95,1047.30 572.65,1049.16 570.35,1049.79 568.05,1049.18 565.74,1047.34" speed="9.72" />
  </edge>
  <edge function="internal" id=":1157849237_5">
    <lane id=":1157849237_5_0" index="0" length="4.82" shape="574.95,1047.30 573.50,1047.65 572.62,1047.39 572.29,1046.53 572.53,1045.06" speed="5.56" />
  </edge>
  <edge function="internal" id=":1157849237_6">
    <lane id=":1157849237_6_0" index="0" length="5.09" shape="568.14,1045.08 569.24,1045.95 570.34,1046.24 571.43,1045.94 572.53,1045.06" speed="9.72" />
  </edge>
  <edge function="internal" id=":1157849237_7">
    <lane id=":1157849237_7_0" index="0" length="9.52" shape="568.14,1045.08 574.66,1052.01" speed="13.89" />
  </edge>
  <edge function="internal" id=":1157849237_8">
    <lane id=":1157849237_8_0" index="0" length="2.41" shape="568.14,1045.08 568.39,1046.54 568.07,1047.41" speed="13.89" />
  </edge>
  <edge function="internal" id=":1157849237_11">
    <lane id=":1157849237_11_0" index="0" length="2.41" shape="568.07,1047.41 567.18,1047.67 565.74,1047.34" speed="13.89" />
  </edge>
  <edge function="internal" id=":1157849247_0">
    <lane id=":1157849247_0_0" index="0" length="5.75" shape="619.13,798.72 618.47,798.13 618.29,797.06 618.61,795.51 619.41,793.47" speed="9.72" />
  </edge>
  <edge function="internal" id=":1157849247_1">
    <lane id=":1157849247_1_0" index="0" length="4.82" shape="619.13,798.72 618.27,797.51 618.17,796.59 618.85,795.96 620.30,795.63" speed="5.56" />
  </edge>
  <edge function="internal" id=":1157849247_2">
    <lane id=":1157849247_2_0" index="0" length="6.52" shape="616.69,799.39 619.41,793.47" speed="13.89" />
  </edge>
  <edge function="internal" id=":1157849247_3">
    <lane id=":1157849247_3_0" index="0" length="5.57" shape="616.69,799.39 617.67,797.52 618.60,796.27 619.47,795.64 620.30,795.63" speed="9.72" />
  </edge>
  <edge function="internal" id=":1157849304_0">
    <lane id=":1157849304_0_0" index="0" length="7.97" shape="593.47,863.01 592.26,862.14 591.73,860.67 591.88,858.58 592.71,855.89" speed="9.72" />
  </edge>
  <edge function="internal" id=":1157849304_1">
    <lane id=":1157849304_1_0" index="0" length="4.82" shape="593.47,863.01 592.59,861.81 592.48,860.90 593.15,860.26 594.60,859.91" speed="5.56" />
  </edge>
  <edge function="internal" id=":1157849304_2">
    <lane id=":1157849304_2_0" index="0" length="9.61" shape="589.54,864.96 592.71,855.89" speed="13.89" />
  </edge>
  <edge function="internal" id=":1157849304_3">
    <lane id=":1157849304_3_0" index="0" length="7.99" shape="589.54,864.96 590.57,862.32 591.76,860.60 593.10,859.80 594.60,859.91" speed="9.72" />
  </edge>
  <edge function="internal" id=":1157849308_0">
    <lane id=":1157849308_0_0" index="0" length="0.61" shape="661.59,791.95 661.22,791.47" speed="9.72" />
  </edge>
  <edge function="internal" id=":1157849308_1">
    <lane id=":1157849308_1_0" index="0" length="2.41" shape="661.59,791.95 661.41,790.47 661.77,789.62" speed="5.56" />
  </edge>
  <edge function="internal" id=":1157849308_4">
    <lane id=":1157849308_4_0" index="0" length="2.41" shape="661.77,789.62 662.66,789.40 664.09,789.80" speed="5.56" />
  </edge>
  <edge function="internal" id=":1157849308_2">
    <lane id=":1157849308_2_0" index="0" length="0.20" shape="663.98,789.64 664.09,789.80" speed="9.72" />
  </edge>
  <edge function="internal" id=":1157849308_3">
    <lane id=":1157849308_3_0" index="0" length="2.41" shape="663.98,789.64 663.97,791.13 663.51,791.93" speed="13.89" />
  </edge>
  <edge function="internal" id=":1157849308_5">
    <lane id=":1157849308_5_0" index="0" length="2.41" shape="663.51,791.93 662.60,792.04 661.22,791.47" speed="13.89" />
  </edge>
  <edge function="internal" id=":1157849331_0">
    <lane id=":1157849331_0_0" index="0" length="5.04" shape="686.49,770.27 685.57,769.23 684.54,768.75 683.41,768.83 682.18,769.47" speed="13.89" />
  </edge>
  <edge function="internal" id=":1157849331_1">
    <lane id=":1157849331_1_0" index="0" length="7.06" shape="686.49,770.27 682.60,764.38" speed="13.89" />
  </edge>
  <edge function="internal" id=":1157849331_2">
    <lane id=":1157849331_2_0" index="0" length="2.41" shape="686.49,770.27 686.50,768.78 686.96,767.98" speed="13.89" />
  </edge>
  <edge function="internal" id=":1157849331_9">
    <lane id=":1157849331_9_0" index="0" length="2.41" shape="686.96,767.98 687.87,767.87 689.25,768.44" speed="13.89" />
  </edge>
  <edge function="internal" id=":1157849331_3">
    <lane id=":1157849331_3_0" index="0" length="7.05" shape="685.35,762.56 689.25,768.44" speed="13.89" />
  </edge>
  <edge function="internal" id=":1157849331_4">
    <lane id=":1157849331_4_0" index="0" length="5.24" shape="685.35,762.56 685.94,764.18 685.60,765.87 684.56,767.34" speed="13.89" />
  </edge>
  <edge function="internal" id=":1157849331_10">
    <lane id=":1157849331_10_0" index="0" length="3.20" shape="684.56,767.34 684.35,767.63 682.18,769.47" speed="13.89" />
  </edge>
  <edge function="internal" id=":1157849331_5">
    <lane id=":1157849331_5_0" index="0" length="2.41" shape="685.35,762.56 685.35,764.05 684.88,764.85" speed="13.89" />
  </edge>
  <edge function="internal" id=":1157849331_11">
    <lane id=":1157849331_11_0" index="0" length="2.41" shape="684.88,764.85 683.97,764.96 682.60,764.38" speed="13.89" />
  </edge>
  <edge function="internal" id=":1157849331_6">
    <lane id=":1157849331_6_0" index="0" length="3.46" shape="680.26,766.78 681.41,765.92 682.18,765.23 682.58,764.72 682.60,764.38" speed="13.89" />
  </edge>
  <edge function="internal" id=":1157849331_7">
    <lane id=":1157849331_7_0" index="0" length="10.50" shape="680.26,766.78 682.83,765.45 685.18,765.29 687.32,766.28 689.25,768.44" speed="13.89" />
  </edge>
  <edge function="internal" id=":1157849331_8">
    <lane id=":1157849331_8_0" index="0" length="4.82" shape="680.26,766.78 681.75,766.74 682.56,767.17 682.71,768.08 682.18,769.47" speed="13.89" />
  </edge>
  <edge function="internal" id=":1157849358_0">
    <lane id=":1157849358_0_0" index="0" length="4.82" shape="686.30,1043.69 686.41,1045.18 686.01,1046.01 685.10,1046.19 683.69,1045.72" speed="13.89" />
  </edge>
  <edge function="internal" id=":1157849361_0">
    <lane id=":1157849361_0_0" index="0" length="5.07" shape="456.82,1093.22 455.47,1092.85 454.35,1093.00 453.45,1093.69 452.78,1094.92" speed="13.89" />
  </edge>
  <edge function="internal" id=":1157849361_1">
    <lane id=":1157849361_1_0" index="0" length="9.58" shape="456.82,1093.22 447.98,1089.55" speed="13.89" />
  </edge>
  <edge function="internal" id=":1157849361_2">
    <lane id=":1157849361_2_0" index="0" length="2.41" shape="456.82,1093.22 456.02,1091.97 455.98,1091.05" speed="13.89" />
  </edge>
  <edge function="internal" id=":1157849361_9">
    <lane id=":1157849361_9_0" index="0" length="2.41" shape="455.98,1091.05 456.69,1090.46 458.16,1090.21" speed="13.89" />
  </edge>
  <edge function="internal" id=":1157849361_3">
    <lane id=":1157849361_3_0" index="0" length="9.73" shape="449.17,1086.47 458.16,1090.21" speed="13.89" />
  </edge>
  <edge function="internal" id=":1157849361_4">
    <lane id=":1157849361_4_0" index="0" length="7.24" shape="449.17,1086.47 451.61,1087.86 453.03,1089.73 453.37,1091.79" speed="13.89" />
  </edge>
  <edge function="internal" id=":1157849361_10">
    <lane id=":1157849361_10_0" index="0" length="3.21" shape="453.37,1091.79 453.42,1092.09 452.78,1094.92" speed="13.89" />
  </edge>
  <edge function="internal" id=":1157849361_5">
    <lane id=":1157849361_5_0" index="0" length="2.41" shape="449.17,1086.47 450.02,1087.69 450.11,1088.61" speed="13.89" />
  </edge>
  <edge function="internal" id=":1157849361_11">
    <lane id=":1157849361_11_0" index="0" length="2.41" shape="450.11,1088.61 449.43,1089.23 447.98,1089.55" speed="13.89" />
  </edge>
  <edge function="internal" id=":1157849361_6">
    <lane id=":1157849361_6_0" index="0" length="5.17" shape="449.69,1093.76 450.02,1092.34 449.84,1091.16 449.16,1090.23 447.98,1089.55" speed="13.89" />
  </edge>
  <edge function="internal" id=":1157849361_7">
    <lane id=":1157849361_7_0" index="0" length="10.61" shape="449.69,1093.76 451.10,1091.19 452.98,1089.74 455.33,1089.41 458.16,1090.21" speed="13.89" />
  </edge>
  <edge function="internal" id=":1157849361_8">
    <lane id=":1157849361_8_0" index="0" length="4.82" shape="449.69,1093.76 450.89,1092.89 451.81,1092.80 452.44,1093.47 452.78,1094.92" speed="13.89" />
  </edge>
  <edge function="internal" id=":1157849369_0">
    <lane id=":1157849369_0_0" index="0" length="5.42" shape="645.18,989.68 644.14,988.53 643.06,988.11 641.96,988.45 640.83,989.52" speed="18.06" />
  </edge>
  <edge function="internal" id=":1157849369_1">
    <lane id=":1157849369_1_0" index="0" length="11.15" shape="645.18,989.68 643.65,986.74 643.23,984.10 643.93,981.77 645.74,979.74" speed="18.06" />
  </edge>
  <edge function="internal" id=":1157849369_2">
    <lane id=":1157849369_2_0" index="0" length="4.82" shape="645.18,989.68 645.17,988.19 645.62,987.39 646.54,987.27 647.91,987.83" speed="13.89" />
  </edge>
  <edge function="internal" id=":1157849369_3">
    <lane id=":1157849369_3_0" index="0" length="6.12" shape="647.79,982.33 646.92,983.37 646.65,984.63 646.98,986.12 647.91,987.83" speed="18.06" />
  </edge>
  <edge function="internal" id=":1157849369_4">
    <lane id=":1157849369_4_0" index="0" length="10.05" shape="647.79,982.33 645.48,984.21 644.00,985.62 642.67,987.18 640.83,989.52" speed="22.22" />
  </edge>
  <edge function="internal" id=":1157849369_5">
    <lane id=":1157849369_5_0" index="0" length="2.41" shape="647.79,982.33 646.31,982.45 645.47,982.06" speed="22.22" />
  </edge>
  <edge function="internal" id=":1157849369_9">
    <lane id=":1157849369_9_0" index="0" length="2.41" shape="645.47,982.06 645.28,981.16 645.74,979.74" speed="22.22" />
  </edge>
  <edge function="internal" id=":1157849369_6">
    <lane id=":1157849369_6_0" index="0" length="10.81" shape="638.24,987.48 640.17,985.05 641.68,983.30 643.35,981.71 645.74,979.74" speed="22.22" />
  </edge>
  <edge function="internal" id=":1157849369_7">
    <lane id=":1157849369_7_0" index="0" length="7.65" shape="638.24,987.48 640.75,985.09 643.20,984.35 644.72,984.93" speed="18.06" />
  </edge>
  <edge function="internal" id=":1157849369_10">
    <lane id=":1157849369_10_0" index="0" length="4.39" shape="644.72,984.93 645.59,985.26 647.91,987.83" speed="18.06" />
  </edge>
  <edge function="internal" id=":1157849369_8">
    <lane id=":1157849369_8_0" index="0" length="2.41" shape="638.24,987.48 639.66,987.02 640.56,987.20" speed="22.22" />
  </edge>
  <edge function="internal" id=":1157849369_11">
    <lane id=":1157849369_11_0" index="0" length="2.41" shape="640.56,987.20 640.95,988.04 640.83,989.52" speed="22.22" />
  </edge>
  <edge function="internal" id=":1157849370_0">
    <lane id=":1157849370_0_0" index="0" length="4.82" shape="611.91,1154.43 611.06,1153.21 610.97,1152.29 611.65,1151.67 613.10,1151.34" speed="13.89" />
  </edge>
  <edge function="internal" id=":1157849397_0">
    <lane id=":1157849397_0_0" index="0" length="2.02" shape="446.11,1112.69 445.51,1114.62" speed="9.72" />
  </edge>
  <edge function="internal" id=":1157849397_1">
    <lane id=":1157849397_1_0" index="0" length="2.41" shape="446.11,1112.69 444.90,1113.56 443.98,1113.65" speed="13.89" />
  </edge>
  <edge function="internal" id=":1157849397_4">
    <lane id=":1157849397_4_0" index="0" length="2.41" shape="443.98,1113.65 443.36,1112.98 443.02,1111.53" speed="13.89" />
  </edge>
  <edge function="internal" id=":1157849397_2">
    <lane id=":1157849397_2_0" index="0" length="2.22" shape="442.36,1113.64 443.02,1111.53" speed="9.72" />
  </edge>
  <edge function="internal" id=":1157849397_3">
    <lane id=":1157849397_3_0" index="0" length="2.41" shape="442.36,1113.64 443.51,1112.71 444.42,1112.56" speed="5.56" />
  </edge>
  <edge function="internal" id=":1157849397_5">
    <lane id=":1157849397_5_0" index="0" length="2.41" shape="444.42,1112.56 445.09,1113.19 445.51,1114.62" speed="5.56" />
  </edge>
  <edge function="internal" id=":1157849420_0">
    <lane id=":1157849420_0_0" index="0" length="5.05" shape="604.59,1151.59 603.23,1151.30 602.12,1151.53 601.26,1152.27 600.66,1153.53" speed="9.72" />
  </edge>
  <edge function="internal" id=":1157849420_1">
    <lane id=":1157849420_1_0" index="0" length="9.51" shape="604.59,1151.59 595.66,1148.33" speed="13.89" />
  </edge>
  <edge function="internal" id=":1157849420_2">
    <lane id=":1157849420_2_0" index="0" length="2.41" shape="604.59,1151.59 603.71,1150.39 603.61,1149.48" speed="13.89" />
  </edge>
  <edge function="internal" id=":1157849420_9">
    <lane id=":1157849420_9_0" index="0" length="2.41" shape="603.61,1149.48 604.28,1148.84 605.72,1148.49" speed="13.89" />
  </edge>
  <edge function="internal" id=":1157849420_3">
    <lane id=":1157849420_3_0" index="0" length="9.51" shape="596.79,1145.23 605.72,1148.49" speed="13.89" />
  </edge>
  <edge function="internal" id=":1157849420_4">
    <lane id=":1157849420_4_0" index="0" length="7.06" shape="596.79,1145.23 599.21,1146.55 600.66,1148.37 601.06,1150.30" speed="9.72" />
  </edge>
  <edge function="internal" id=":1157849420_10">
    <lane id=":1157849420_10_0" index="0" length="3.28" shape="601.06,1150.30 601.14,1150.70 600.66,1153.53" speed="9.72" />
  </edge>
  <edge function="internal" id=":1157849420_5">
    <lane id=":1157849420_5_0" index="0" length="2.41" shape="596.79,1145.23 597.67,1146.43 597.77,1147.35" speed="13.89" />
  </edge>
  <edge function="internal" id=":1157849420_11">
    <lane id=":1157849420_11_0" index="0" length="2.41" shape="597.77,1147.35 597.10,1147.98 595.66,1148.33" speed="13.89" />
  </edge>
  <edge function="internal" id=":1157849420_6">
    <lane id=":1157849420_6_0" index="0" length="5.19" shape="597.51,1152.54 597.77,1151.09 597.54,1149.90 596.84,1148.99 595.66,1148.33" speed="9.72" />
  </edge>
  <edge function="internal" id=":1157849420_7">
    <lane id=":1157849420_7_0" index="0" length="10.55" shape="597.51,1152.54 598.77,1149.92 600.56,1148.37 602.87,1147.89 605.72,1148.49" speed="9.72" />
  </edge>
  <edge function="internal" id=":1157849420_8">
    <lane id=":1157849420_8_0" index="0" length="4.82" shape="597.51,1152.54 598.67,1151.61 599.58,1151.46 600.24,1152.10 600.66,1153.53" speed="5.56" />
  </edge>
  <edge function="internal" id=":1157849440_0">
    <lane id=":1157849440_0_0" index="0" length="4.82" shape="606.53,1148.79 607.41,1149.99 607.52,1150.90 606.85,1151.54 605.40,1151.89" speed="13.89" />
  </edge>
  <edge function="internal" id=":1157849446_0">
    <lane id=":1157849446_0_0" index="0" length="4.82" shape="677.70,772.67 676.21,772.72 675.40,772.28 675.26,771.37 675.78,769.98" speed="13.89" />
  </edge>
  <edge function="internal" id=":1157930621_0">
    <lane id=":1157930621_0_0" index="0" length="4.82" shape="446.92,1363.02 448.20,1362.26 449.12,1362.24 449.69,1362.96 449.90,1364.43" speed="5.56" />
  </edge>
  <edge function="internal" id=":1157930689_0">
    <lane id=":1157930689_0_0" index="0" length="9.50" shape="436.49,1399.65 428.01,1395.35" speed="13.89" />
  </edge>
  <edge function="internal" id=":1157930689_1">
    <lane id=":1157930689_1_0" index="0" length="7.09" shape="436.49,1399.65 434.21,1398.05 432.98,1396.07 432.83,1394.09" speed="9.72" />
  </edge>
  <edge function="internal" id=":1157930689_9">
    <lane id=":1157930689_9_0" index="0" length="3.24" shape="432.83,1394.09 432.80,1393.72 433.65,1390.99" speed="9.72" />
  </edge>
  <edge function="internal" id=":1157930689_2">
    <lane id=":1157930689_2_0" index="0" length="2.41" shape="436.49,1399.65 435.76,1398.35 435.76,1397.43" speed="13.89" />
  </edge>
  <edge function="internal" id=":1157930689_10">
    <lane id=":1157930689_10_0" index="0" length="2.41" shape="435.76,1397.43 436.50,1396.88 437.98,1396.71" speed="13.89" />
  </edge>
  <edge function="internal" id=":1157930689_3">
    <lane id=":1157930689_3_0" index="0" length="5.11" shape="436.64,1392.41 436.20,1393.77 436.28,1394.94 436.87,1395.92 437.98,1396.71" speed="9.72" />
  </edge>
  <edge function="internal" id=":1157930689_4">
    <lane id=":1157930689_4_0" index="0" length="10.46" shape="436.64,1392.41 435.05,1394.80 433.08,1396.09 430.73,1396.28 428.01,1395.35" speed="9.72" />
  </edge>
  <edge function="internal" id=":1157930689_5">
    <lane id=":1157930689_5_0" index="0" length="4.82" shape="436.64,1392.41 435.36,1393.17 434.44,1393.19 433.87,1392.46 433.65,1390.99" speed="5.56" />
  </edge>
  <edge function="internal" id=":1157930689_6">
    <lane id=":1157930689_6_0" index="0" length="5.03" shape="429.50,1392.41 430.81,1392.85 431.94,1392.77 432.89,1392.14 433.65,1390.99" speed="9.72" />
  </edge>
  <edge function="internal" id=":1157930689_7">
    <lane id=":1157930689_7_0" index="0" length="9.50" shape="429.50,1392.41 437.98,1396.71" speed="13.89" />
  </edge>
  <edge function="internal" id=":1157930689_8">
    <lane id=":1157930689_8_0" index="0" length="2.41" shape="429.50,1392.41 430.23,1393.70 430.23,1394.63" speed="13.89" />
  </edge>
  <edge function="internal" id=":1157930689_11">
    <lane id=":1157930689_11_0" index="0" length="2.41" shape="430.23,1394.63 429.49,1395.18 428.01,1395.35" speed="13.89" />
  </edge>
  <edge function="internal" id=":1157930725_0">
    <lane id=":1157930725_0_0" index="0" length="9.52" shape="468.15,1408.76 463.49,1417.06" speed="22.22" />
  </edge>
  <edge function="internal" id=":1157930725_1">
    <lane id=":1157930725_1_0" index="0" length="7.07" shape="468.15,1408.76 466.47,1410.95 464.44,1412.09 462.45,1412.17" speed="18.06" />
  </edge>
  <edge function="internal" id=":1157930725_9">
    <lane id=":1157930725_9_0" index="0" length="3.27" shape="462.45,1412.17 462.06,1412.18 459.34,1411.24" speed="18.06" />
  </edge>
  <edge function="internal" id=":1157930725_2">
    <lane id=":1157930725_2_0" index="0" length="2.41" shape="468.15,1408.76 466.83,1409.44 465.91,1409.40" speed="22.22" />
  </edge>
  <edge function="internal" id=":1157930725_10">
    <lane id=":1157930725_10_0" index="0" length="2.41" shape="465.91,1409.40 465.39,1408.63 465.28,1407.15" speed="22.22" />
  </edge>
  <edge function="internal" id=":1157930725_3">
    <lane id=":1157930725_3_0" index="0" length="5.18" shape="460.83,1408.30 462.22,1408.79 463.42,1408.76 464.44,1408.21 465.28,1407.15" speed="18.06" />
  </edge>
  <edge function="internal" id=":1157930725_4">
    <lane id=":1157930725_4_0" index="0" length="10.55" shape="460.83,1408.30 463.22,1409.97 464.45,1411.99 464.54,1414.35 463.49,1417.06" speed="18.06" />
  </edge>
  <edge function="internal" id=":1157930725_5">
    <lane id=":1157930725_5_0" index="0" length="4.82" shape="460.83,1408.30 461.56,1409.59 461.56,1410.51 460.82,1411.06 459.34,1411.24" speed="13.89" />
  </edge>
  <edge function="internal" id=":1157930725_6">
    <lane id=":1157930725_6_0" index="0" length="5.05" shape="460.61,1415.44 461.12,1414.14 461.07,1413.01 460.48,1412.04 459.34,1411.24" speed="18.06" />
  </edge>
  <edge function="internal" id=":1157930725_7">
    <lane id=":1157930725_7_0" index="0" length="9.51" shape="460.61,1415.44 465.28,1407.15" speed="22.22" />
  </edge>
  <edge function="internal" id=":1157930725_8">
    <lane id=":1157930725_8_0" index="0" length="2.41" shape="460.61,1415.44 461.94,1414.77 462.86,1414.81" speed="22.22" />
  </edge>
  <edge function="internal" id=":1157930725_11">
    <lane id=":1157930725_11_0" index="0" length="2.41" shape="462.86,1414.81 463.38,1415.58 463.49,1417.06" speed="22.22" />
  </edge>
  <edge function="internal" id=":1157930727_0">
    <lane id=":1157930727_0_0" index="0" length="4.82" shape="304.66,1332.79 303.93,1331.49 303.93,1330.57 304.67,1330.02 306.15,1329.84" speed="13.89" />
  </edge>
  <edge function="internal" id=":1158104448_0">
    <lane id=":1158104448_0_0" index="0" length="7.89" shape="662.16,707.56 661.10,706.58 660.66,705.05 660.84,702.96 661.63,700.31" speed="9.72" />
  </edge>
  <edge function="internal" id=":1158104448_1">
    <lane id=":1158104448_1_0" index="0" length="4.82" shape="662.16,707.56 661.43,706.26 661.44,705.34 662.18,704.79 663.66,704.62" speed="5.56" />
  </edge>
  <edge function="internal" id=":1158104448_2">
    <lane id=":1158104448_2_0" index="0" length="9.41" shape="658.01,709.00 661.63,700.31" speed="13.89" />
  </edge>
  <edge function="internal" id=":1158104448_3">
    <lane id=":1158104448_3_0" index="0" length="7.98" shape="658.01,709.00 659.37,706.52 660.77,704.96 662.20,704.33 663.66,704.62" speed="9.72" />
  </edge>
  <edge function="internal" id=":1158257917_0">
    <lane id=":1158257917_0_0" index="0" length="4.82" shape="1012.63,261.69 1013.51,262.89 1013.62,263.80 1012.95,264.44 1011.51,264.79" speed="22.22" />
  </edge>
  <edge function="internal" id=":1158257926_0">
    <lane id=":1158257926_0_0" index="0" length="5.12" shape="1007.33,263.28 1005.93,262.98 1004.77,263.16 1003.84,263.85 1003.16,265.02" speed="22.22" />
  </edge>
  <edge function="internal" id=":1158257926_1">
    <lane id=":1158257926_1_0" index="0" length="10.46" shape="1007.33,263.28 1004.79,261.93 1003.32,260.09 1002.91,257.77 1003.58,254.97" speed="22.22" />
  </edge>
  <edge function="internal" id=":1158257926_2">
    <lane id=":1158257926_2_0" index="0" length="4.82" shape="1007.33,263.28 1006.45,262.08 1006.34,261.17 1007.01,260.53 1008.45,260.18" speed="22.22" />
  </edge>
  <edge function="internal" id=":1158257926_3">
    <lane id=":1158257926_3_0" index="0" length="5.03" shape="1006.65,256.18 1006.33,257.53 1006.52,258.64 1007.23,259.53 1008.45,260.18" speed="22.22" />
  </edge>
  <edge function="internal" id=":1158257926_4">
    <lane id=":1158257926_4_0" index="0" length="9.50" shape="1006.65,256.18 1003.16,265.02" speed="22.22" />
  </edge>
  <edge function="internal" id=":1158257926_5">
    <lane id=":1158257926_5_0" index="0" length="2.41" shape="1006.65,256.18 1005.43,257.03 1004.51,257.11" speed="22.22" />
  </edge>
  <edge function="internal" id=":1158257926_9">
    <lane id=":1158257926_9_0" index="0" length="2.41" shape="1004.51,257.11 1003.89,256.42 1003.58,254.97" speed="22.22" />
  </edge>
  <edge function="internal" id=":1158257926_6">
    <lane id=":1158257926_6_0" index="0" length="9.50" shape="1000.09,263.81 1003.58,254.97" speed="22.22" />
  </edge>
  <edge function="internal" id=":1158257926_7">
    <lane id=":1158257926_7_0" index="0" length="7.09" shape="1000.09,263.81 1001.48,261.40 1003.33,259.99 1005.28,259.65" speed="22.22" />
  </edge>
  <edge function="internal" id=":1158257926_10">
    <lane id=":1158257926_10_0" index="0" length="3.24" shape="1005.28,259.65 1005.66,259.58 1008.45,260.18" speed="22.22" />
  </edge>
  <edge function="internal" id=":1158257926_8">
    <lane id=":1158257926_8_0" index="0" length="2.41" shape="1000.09,263.81 1001.32,262.96 1002.23,262.88" speed="22.22" />
  </edge>
  <edge function="internal" id=":1158257926_11">
    <lane id=":1158257926_11_0" index="0" length="2.41" shape="1002.23,262.88 1002.85,263.57 1003.16,265.02" speed="22.22" />
  </edge>
  <edge function="internal" id=":1161158881_0">
    <lane id=":1161158881_0_0" index="0" length="4.82" shape="433.30,1114.24 432.44,1113.02 432.36,1112.10 433.04,1111.49 434.49,1111.17" speed="5.56" />
  </edge>
  <edge function="internal" id=":1161158890_0">
    <lane id=":1161158890_0_0" index="0" length="4.82" shape="458.94,1120.69 459.80,1121.91 459.88,1122.83 459.20,1123.45 457.74,1123.77" speed="5.56" />
  </edge>
  <edge function="internal" id=":1161158942_0">
    <lane id=":1161158942_0_0" index="0" length="9.52" shape="446.87,1119.53 438.00,1116.07" speed="5.56" />
  </edge>
  <edge function="internal" id=":1161158942_1">
    <lane id=":1161158942_1_0" index="0" length="8.07" shape="446.87,1119.53 444.46,1118.35 442.90,1117.00 442.18,1115.50 442.30,1113.84" speed="5.56" />
  </edge>
  <edge function="internal" id=":1161158942_2">
    <lane id=":1161158942_2_0" index="0" length="4.82" shape="446.87,1119.53 446.01,1118.31 445.93,1117.39 446.61,1116.77 448.07,1116.45" speed="5.56" />
  </edge>
  <edge function="internal" id=":1161158942_3">
    <lane id=":1161158942_3_0" index="0" length="3.19" shape="445.45,1114.81 445.55,1115.12 446.02,1115.50 446.86,1115.94 448.07,1116.45" speed="5.56" />
  </edge>
  <edge function="internal" id=":1161158942_4">
    <lane id=":1161158942_4_0" index="0" length="8.56" shape="445.45,1114.81 444.56,1116.28 443.02,1116.99 440.83,1116.92 438.00,1116.07" speed="5.56" />
  </edge>
  <edge function="internal" id=":1161158942_5">
    <lane id=":1161158942_5_0" index="0" length="4.82" shape="445.45,1114.81 444.30,1115.75 443.39,1115.90 442.72,1115.26 442.30,1113.84" speed="5.56" />
  </edge>
  <edge function="internal" id=":1161158942_6">
    <lane id=":1161158942_6_0" index="0" length="3.26" shape="439.20,1113.00 440.52,1113.49 441.47,1113.79 442.07,1113.91 442.30,1113.84" speed="5.56" />
  </edge>
  <edge function="internal" id=":1161158942_7">
    <lane id=":1161158942_7_0" index="0" length="9.52" shape="439.20,1113.00 448.07,1116.45" speed="5.56" />
  </edge>
  <edge function="internal" id=":1161158942_8">
    <lane id=":1161158942_8_0" index="0" length="4.82" shape="439.20,1113.00 440.05,1114.22 440.14,1115.13 439.45,1115.75 438.00,1116.07" speed="5.56" />
  </edge>
  <edge function="internal" id=":1161158949_0">
    <lane id=":1161158949_0_0" index="0" length="5.07" shape="480.83,1103.17 479.50,1102.86 478.38,1103.06 477.46,1103.77 476.76,1104.99" speed="9.72" />
  </edge>
  <edge function="internal" id=":1161158949_1">
    <lane id=":1161158949_1_0" index="0" length="4.70" shape="480.83,1103.17 476.46,1101.45" speed="13.89" />
  </edge>
  <edge function="internal" id=":1161158949_2">
    <lane id=":1161158949_2_0" index="0" length="2.41" shape="480.83,1103.17 479.98,1101.95 479.90,1101.03" speed="13.89" />
  </edge>
  <edge function="internal" id=":1161158949_9">
    <lane id=":1161158949_9_0" index="0" length="2.41" shape="479.90,1101.03 480.59,1100.42 482.04,1100.10" speed="13.89" />
  </edge>
  <edge function="internal" id=":1161158949_3">
    <lane id=":1161158949_3_0" index="0" length="8.50" shape="474.11,1097.03 482.04,1100.10" speed="13.89" />
  </edge>
  <edge function="internal" id=":1161158949_4">
    <lane id=":1161158949_4_0" index="0" length="6.35" shape="474.11,1097.03 476.19,1098.25 477.32,1099.98 477.48,1101.85" speed="9.72" />
  </edge>
  <edge function="internal" id=":1161158949_10">
    <lane id=":1161158949_10_0" index="0" length="3.25" shape="477.48,1101.85 477.51,1102.23 476.76,1104.99" speed="9.72" />
  </edge>
  <edge function="internal" id=":1161158949_5">
    <lane id=":1161158949_5_0" index="0" length="3.65" shape="474.11,1097.03 476.36,1097.25 477.49,1098.06" speed="13.89" />
  </edge>
  <edge function="internal" id=":1161158949_11">
    <lane id=":1161158949_11_0" index="0" length="3.65" shape="477.49,1098.06 477.53,1099.46 476.46,1101.45" speed="13.89" />
  </edge>
  <edge function="internal" id=":1161158949_6">
    <lane id=":1161158949_6_0" index="0" length="3.60" shape="473.70,1103.75 476.46,1101.45" speed="9.72" />
  </edge>
  <edge function="internal" id=":1161158949_7">
    <lane id=":1161158949_7_0" index="0" length="10.36" shape="473.70,1103.75 475.13,1101.28 477.00,1099.85 479.30,1099.46 482.04,1100.10" speed="9.72" />
  </edge>
  <edge function="internal" id=":1161158949_8">
    <lane id=":1161158949_8_0" index="0" length="4.82" shape="473.70,1103.75 474.93,1102.92 475.85,1102.84 476.46,1103.54 476.76,1104.99" speed="5.56" />
  </edge>
  <edge function="internal" id=":1161158966_0">
    <lane id=":1161158966_0_0" index="0" length="4.82" shape="471.63,1117.66 470.40,1118.50 469.48,1118.57 468.87,1117.88 468.57,1116.42" speed="5.56" />
  </edge>
  <edge function="internal" id=":1161158970_0">
    <lane id=":1161158970_0_0" index="0" length="9.51" shape="461.45,983.05 453.66,988.50" speed="13.89" />
  </edge>
  <edge function="internal" id=":1161158970_1">
    <lane id=":1161158970_1_0" index="0" length="7.16" shape="461.45,983.05 458.86,984.36 456.50,984.50 454.80,983.68" speed="13.89" />
  </edge>
  <edge function="internal" id=":1161158970_9">
    <lane id=":1161158970_9_0" index="0" length="3.37" shape="454.80,983.68 454.38,983.47 452.48,981.28" speed="13.89" />
  </edge>
  <edge function="internal" id=":1161158970_2">
    <lane id=":1161158970_2_0" index="0" length="2.41" shape="461.45,983.05 459.96,983.09 459.15,982.65" speed="13.89" />
  </edge>
  <edge function="internal" id=":1161158970_10">
    <lane id=":1161158970_10_0" index="0" length="2.41" shape="459.15,982.65 459.02,981.73 459.56,980.35" speed="13.89" />
  </edge>
  <edge function="internal" id=":1161158970_3">
    <lane id=":1161158970_3_0" index="0" length="5.05" shape="455.26,979.50 456.17,980.55 457.19,981.04 458.32,980.98 459.56,980.35" speed="13.89" />
  </edge>
  <edge function="internal" id=":1161158970_4">
    <lane id=":1161158970_4_0" index="0" length="10.33" shape="455.26,979.50 456.47,982.10 456.60,984.47 455.67,986.60 453.66,988.50" speed="13.89" />
  </edge>
  <edge function="internal" id=":1161158970_5">
    <lane id=":1161158970_5_0" index="0" length="4.82" shape="455.26,979.50 455.23,980.99 454.76,981.78 453.84,981.88 452.48,981.28" speed="13.89" />
  </edge>
  <edge function="internal" id=":1161158970_6">
    <lane id=":1161158970_6_0" index="0" length="5.16" shape="451.77,985.79 452.75,984.86 453.19,983.80 453.10,982.60 452.48,981.28" speed="13.89" />
  </edge>
  <edge function="internal" id=":1161158970_7">
    <lane id=":1161158970_7_0" index="0" length="9.51" shape="451.77,985.79 459.56,980.35" speed="13.89" />
  </edge>
  <edge function="internal" id=":1161158970_8">
    <lane id=":1161158970_8_0" index="0" length="2.41" shape="451.77,985.79 453.25,985.76 454.07,986.20" speed="13.89" />
  </edge>
  <edge function="internal" id=":1161158970_11">
    <lane id=":1161158970_11_0" index="0" length="2.41" shape="454.07,986.20 454.20,987.11 453.66,988.50" speed="13.89" />
  </edge>
  <edge function="internal" id=":1161158981_0">
    <lane id=":1161158981_0_0" index="0" length="4.82" shape="450.38,978.02 450.41,976.54 450.88,975.74 451.80,975.64 453.16,976.24" speed="13.89" />
  </edge>
  <edge function="internal" id=":1161160742_0">
    <lane id=":1161160742_0_0" index="0" length="6.08" shape="610.52,1036.89 610.03,1038.69 610.33,1039.83 611.41,1040.29 613.26,1040.08" speed="22.22" />
  </edge>
  <edge function="internal" id=":1161160742_1">
    <lane id=":1161160742_1_0" index="0" length="7.05" shape="610.52,1036.89 607.92,1043.44" speed="22.22" />
  </edge>
  <edge function="internal" id=":1161160742_2">
    <lane id=":1161160742_2_0" index="0" length="2.41" shape="610.52,1036.89 609.29,1037.72 608.37,1037.79" speed="22.22" />
  </edge>
  <edge function="internal" id=":1161160742_6">
    <lane id=":1161160742_6_0" index="0" length="2.41" shape="608.37,1037.79 607.76,1037.09 607.46,1035.64" speed="22.22" />
  </edge>
  <edge function="internal" id=":1161160742_3">
    <lane id=":1161160742_3_0" index="0" length="7.25" shape="604.80,1042.38 607.46,1035.64" speed="22.22" />
  </edge>
  <edge function="internal" id=":1161160742_4">
    <lane id=":1161160742_4_0" index="0" length="4.20" shape="604.80,1042.38 605.36,1042.13 606.96,1041.66 608.81,1041.18" speed="22.22" />
  </edge>
  <edge function="internal" id=":1161160742_7">
    <lane id=":1161160742_7_0" index="0" length="4.58" shape="608.81,1041.18 609.60,1040.98 613.26,1040.08" speed="22.22" />
  </edge>
  <edge function="internal" id=":1161160742_5">
    <lane id=":1161160742_5_0" index="0" length="2.41" shape="604.80,1042.38 605.98,1041.47 606.89,1041.35" speed="22.22" />
  </edge>
  <edge function="internal" id=":1161160742_8">
    <lane id=":1161160742_8_0" index="0" length="2.41" shape="606.89,1041.35 607.54,1042.00 607.92,1043.44" speed="22.22" />
  </edge>
  <edge function="internal" id=":1161160746_0">
    <lane id=":1161160746_0_0" index="0" length="2.91" shape="626.69,1044.92 624.89,1042.64" speed="22.22" />
  </edge>
  <edge function="internal" id=":1161160746_1">
    <lane id=":1161160746_1_0" index="0" length="2.41" shape="626.69,1044.92 626.59,1043.43 626.99,1042.60" speed="22.22" />
  </edge>
  <edge function="internal" id=":1161160746_6">
    <lane id=":1161160746_6_0" index="0" length="2.41" shape="626.99,1042.60 627.90,1042.43 629.31,1042.91" speed="22.22" />
  </edge>
  <edge function="internal" id=":1161160746_2">
    <lane id=":1161160746_2_0" index="0" length="3.00" shape="627.44,1040.55 629.31,1042.91" speed="22.22" />
  </edge>
  <edge function="internal" id=":1161160746_3">
    <lane id=":1161160746_3_0" index="0" length="2.41" shape="627.44,1040.55 627.59,1042.03 627.21,1042.87" speed="22.22" />
  </edge>
  <edge function="internal" id=":1161160746_7">
    <lane id=":1161160746_7_0" index="0" length="2.41" shape="627.21,1042.87 626.31,1043.07 624.89,1042.64" speed="22.22" />
  </edge>
  <edge function="internal" id=":1161160746_4">
    <lane id=":1161160746_4_0" index="0" length="1.20" shape="625.81,1041.88 624.89,1042.64" speed="22.22" />
  </edge>
  <edge function="internal" id=":1161160746_5">
    <lane id=":1161160746_5_0" index="0" length="3.64" shape="625.81,1041.88 629.31,1042.91" speed="22.22" />
  </edge>
  <edge function="internal" id=":1167068144_0">
    <lane id=":1167068144_0_0" index="0" length="0.10" shape="774.74,563.15 774.74,563.15" speed="27.78" />
  </edge>
  <edge function="internal" id=":1167068144_1">
    <lane id=":1167068144_1_0" index="0" length="0.10" shape="772.69,560.56 772.69,560.56" speed="27.78" />
  </edge>
  <edge function="internal" id=":1167068144_2">
    <lane id=":1167068144_2_0" index="0" length="2.41" shape="772.69,560.56 771.21,560.68 770.37,560.29" speed="27.78" />
  </edge>
  <edge function="internal" id=":1167068144_6">
    <lane id=":1167068144_6_0" index="0" length="2.41" shape="770.37,560.29 770.18,559.39 770.64,557.97" speed="27.78" />
  </edge>
  <edge function="internal" id=":1167068144_3">
    <lane id=":1167068144_3_0" index="0" length="0.10" shape="768.59,555.39 768.59,555.39" speed="27.78" />
  </edge>
  <edge function="internal" id=":1167068144_4">
    <lane id=":1167068144_4_0" index="0" length="0.10" shape="770.64,557.97 770.64,557.97" speed="27.78" />
  </edge>
  <edge function="internal" id=":1167068144_5">
    <lane id=":1167068144_5_0" index="0" length="2.41" shape="770.64,557.97 772.12,557.85 772.96,558.24" speed="27.78" />
  </edge>
  <edge function="internal" id=":1167068144_7">
    <lane id=":1167068144_7_0" index="0" length="2.41" shape="772.96,558.24 773.15,559.15 772.69,560.56" speed="27.78" />
  </edge>
  <edge function="internal" id=":1167068154_0">
    <lane id=":1167068154_0_0" index="0" length="0.24" shape="912.98,452.68 912.79,452.82" speed="27.78" />
  </edge>
  <edge function="internal" id=":1167068154_1">
    <lane id=":1167068154_1_0" index="0" length="0.10" shape="910.82,450.18 910.86,450.14" speed="27.78" />
  </edge>
  <edge function="internal" id=":1167068154_2">
    <lane id=":1167068154_2_0" index="0" length="2.41" shape="910.82,450.18 909.33,450.28 908.50,449.89" speed="27.78" />
  </edge>
  <edge function="internal" id=":1167068154_6">
    <lane id=":1167068154_6_0" index="0" length="2.41" shape="908.50,449.89 908.32,448.98 908.79,447.57" speed="27.78" />
  </edge>
  <edge function="internal" id=":1167068154_3">
    <lane id=":1167068154_3_0" index="0" length="0.10" shape="906.79,444.94 906.79,444.95" speed="27.78" />
  </edge>
  <edge function="internal" id=":1167068154_4">
    <lane id=":1167068154_4_0" index="0" length="0.10" shape="908.79,447.57 908.79,447.57" speed="27.78" />
  </edge>
  <edge function="internal" id=":1167068154_5">
    <lane id=":1167068154_5_0" index="0" length="2.41" shape="908.79,447.57 910.27,447.44 911.11,447.82" speed="27.78" />
  </edge>
  <edge function="internal" id=":1167068154_7">
    <lane id=":1167068154_7_0" index="0" length="2.41" shape="911.11,447.82 911.31,448.72 910.86,450.14" speed="27.78" />
  </edge>
  <edge function="internal" id=":1167068163_0">
    <lane id=":1167068163_0_0" index="0" length="0.35" shape="1004.45,381.96 1004.17,382.19" speed="27.78" />
  </edge>
  <edge function="internal" id=":1167068163_1">
    <lane id=":1167068163_1_0" index="0" length="0.20" shape="1002.27,379.47 1002.12,379.60" speed="27.78" />
  </edge>
  <edge function="internal" id=":1167068163_2">
    <lane id=":1167068163_2_0" index="0" length="2.41" shape="1002.27,379.47 1000.80,379.68 999.94,379.34" speed="27.78" />
  </edge>
  <edge function="internal" id=":1167068163_6">
    <lane id=":1167068163_6_0" index="0" length="2.41" shape="999.94,379.34 999.70,378.45 1000.07,377.01" speed="27.78" />
  </edge>
  <edge function="internal" id=":1167068163_3">
    <lane id=":1167068163_3_0" index="0" length="0.10" shape="998.02,374.42 998.02,374.42" speed="27.78" />
  </edge>
  <edge function="internal" id=":1167068163_4">
    <lane id=":1167068163_4_0" index="0" length="0.10" shape="1000.07,377.01 1000.07,377.01" speed="27.78" />
  </edge>
  <edge function="internal" id=":1167068163_5">
    <lane id=":1167068163_5_0" index="0" length="2.41" shape="1000.07,377.01 1001.55,376.89 1002.39,377.28" speed="27.78" />
  </edge>
  <edge function="internal" id=":1167068163_7">
    <lane id=":1167068163_7_0" index="0" length="2.41" shape="1002.39,377.28 1002.58,378.18 1002.12,379.60" speed="27.78" />
  </edge>
  <edge function="internal" id=":1190909444_0">
    <lane id=":1190909444_0_0" index="0" length="1.16" shape="1051.41,319.55 1051.75,320.66" speed="27.78" />
  </edge>
  <edge function="internal" id=":1190909444_1">
    <lane id=":1190909444_1_0" index="0" length="0.38" shape="1048.39,320.87 1048.50,321.23" speed="27.78" />
  </edge>
  <edge function="internal" id=":1190909448_0">
    <lane id=":1190909448_0_0" index="0" length="0.10" shape="1055.33,316.06 1055.33,316.06" speed="27.78" />
  </edge>
  <edge function="internal" id=":1190909448_1">
    <lane id=":1190909448_1_0" index="0" length="0.10" shape="1053.77,318.97 1053.74,318.95" speed="27.78" />
  </edge>
  <edge function="internal" id=":1190909461_0">
    <lane id=":1190909461_0_0" index="0" length="3.30" shape="1048.09,337.64 1045.83,340.04" speed="27.78" />
  </edge>
  <edge function="internal" id=":1190909461_1">
    <lane id=":1190909461_1_0" index="0" length="3.94" shape="1045.92,335.15 1043.22,338.02" speed="27.78" />
  </edge>
  <edge function="internal" id=":1190909461_2">
    <lane id=":1190909461_2_0" index="0" length="3.37" shape="1047.81,337.32 1045.83,340.04" speed="27.78" />
  </edge>
  <edge function="internal" id=":1190909461_3">
    <lane id=":1190909461_3_0" index="0" length="4.03" shape="1045.56,334.74 1043.22,338.02" speed="27.78" />
  </edge>
  <edge function="internal" id=":1190930093_0">
    <lane id=":1190930093_0_0" index="0" length="0.40" shape="1802.99,323.03 1803.36,323.18" speed="22.22" />
  </edge>
  <edge function="internal" id=":1190930094_0">
    <lane id=":1190930094_0_0" index="0" length="3.27" shape="1830.06,291.83 1826.93,290.92" speed="27.78" />
  </edge>
  <edge function="internal" id=":1190930094_1">
    <lane id=":1190930094_1_0" index="0" length="3.41" shape="1827.16,289.99 1823.75,290.00" speed="27.78" />
  </edge>
  <edge function="internal" id=":1190930094_2">
    <lane id=":1190930094_2_0" index="0" length="0.90" shape="1827.16,289.99 1826.48,290.58" speed="27.78" />
  </edge>
  <edge function="internal" id=":1190930094_6">
    <lane id=":1190930094_6_0" index="0" length="3.92" shape="1826.48,290.58 1826.04,290.97 1825.13,291.15 1824.45,290.54 1823.97,289.13" speed="27.78" />
  </edge>
  <edge function="internal" id=":1190930094_3">
    <lane id=":1190930094_3_0" index="0" length="3.53" shape="1823.92,290.05 1820.67,288.67" speed="27.78" />
  </edge>
  <edge function="internal" id=":1190930094_4">
    <lane id=":1190930094_4_0" index="0" length="3.74" shape="1827.21,291.00 1823.97,289.13" speed="27.78" />
  </edge>
  <edge function="internal" id=":1190930094_5">
    <lane id=":1190930094_5_0" index="0" length="2.63" shape="1827.21,291.00 1825.97,292.05 1824.98,292.23" speed="27.78" />
  </edge>
  <edge function="internal" id=":1190930094_7">
    <lane id=":1190930094_7_0" index="0" length="2.63" shape="1824.98,292.23 1824.24,291.55 1823.75,290.00" speed="27.78" />
  </edge>
  <edge function="internal" id=":1190930096_0">
    <lane id=":1190930096_0_0" index="0" length="2.90" shape="1816.61,344.76 1816.23,347.63" speed="27.78" />
  </edge>
  <edge function="internal" id=":1190930096_1">
    <lane id=":1190930096_1_0" index="0" length="3.10" shape="1813.35,344.22 1812.95,347.29" speed="27.78" />
  </edge>
  <edge function="internal" id=":1190930096_2">
    <lane id=":1190930096_2_0" index="0" length="3.50" shape="1814.65,344.23 1812.95,347.29" speed="25.00" />
  </edge>
  <edge function="internal" id=":1190930097_0">
    <lane id=":1190930097_0_0" index="0" length="3.03" shape="1860.91,335.97 1857.91,335.51" speed="27.78" />
  </edge>
  <edge function="internal" id=":1190930097_1">
    <lane id=":1190930097_1_0" index="0" length="4.26" shape="1860.91,335.97 1858.79,332.27" speed="27.78" />
  </edge>
  <edge function="internal" id=":1190930097_2">
    <lane id=":1190930097_2_0" index="0" length="3.01" shape="1860.91,335.97 1857.99,335.20" speed="27.78" />
  </edge>
  <edge function="internal" id=":1190930097_3">
    <lane id=":1190930097_3_0" index="0" length="2.96" shape="1861.72,332.77 1858.86,332.02" speed="27.78" />
  </edge>
  <edge function="internal" id=":1190930103_0">
    <lane id=":1190930103_0_0" index="0" length="1.19" shape="1836.82,327.49 1835.92,326.72" speed="27.78" />
  </edge>
  <edge function="internal" id=":1190930103_1">
    <lane id=":1190930103_1_0" index="0" length="0.39" shape="1838.65,324.74 1838.35,324.49" speed="27.78" />
  </edge>
  <edge function="internal" id=":1190930106_0">
    <lane id=":1190930106_0_0" index="0" length="2.22" shape="1817.36,342.46 1816.64,344.56" speed="27.78" />
  </edge>
  <edge function="internal" id=":1190930106_1">
    <lane id=":1190930106_1_0" index="0" length="2.94" shape="1814.30,341.23 1813.39,344.02" speed="27.78" />
  </edge>
  <edge function="internal" id=":1190930106_2">
    <lane id=":1190930106_2_0" index="0" length="2.32" shape="1816.84,342.25 1816.64,344.56" speed="27.78" />
  </edge>
  <edge function="internal" id=":1190930106_3">
    <lane id=":1190930106_3_0" index="0" length="3.08" shape="1813.60,340.95 1813.39,344.02" speed="27.78" />
  </edge>
  <edge function="internal" id=":1241330290_0">
    <lane id=":1241330290_0_0" index="0" length="0.10" shape="1560.21,79.15 1560.21,79.14" speed="27.78" />
  </edge>
  <edge function="internal" id=":1241330290_1">
    <lane id=":1241330290_1_0" index="0" length="0.10" shape="1557.90,76.80 1557.90,76.79" speed="27.78" />
  </edge>
  <edge function="internal" id=":1241330302_0">
    <lane id=":1241330302_0_0" index="0" length="0.10" shape="1363.05,261.29 1363.08,261.28" speed="27.78" />
  </edge>
  <edge function="internal" id=":1241330302_1">
    <lane id=":1241330302_1_0" index="0" length="0.10" shape="1364.10,264.42 1364.04,264.44" speed="27.78" />
  </edge>
  <edge function="internal" id=":1241330304_0">
    <lane id=":1241330304_0_0" index="0" length="1.59" shape="1522.15,135.37 1521.43,136.78" speed="13.41" />
  </edge>
  <edge function="internal" id=":1241330304_1">
    <lane id=":1241330304_1_0" index="0" length="0.52" shape="1519.00,134.37 1518.77,134.83" speed="13.41" />
  </edge>
  <edge function="internal" id=":1241330327_0">
    <lane id=":1241330327_0_0" index="0" length="0.14" shape="1343.59,218.11 1343.46,218.16" speed="13.41" />
  </edge>
  <edge function="internal" id=":1241330327_1">
    <lane id=":1241330327_1_0" index="0" length="0.42" shape="1342.49,214.99 1342.11,215.15" speed="13.41" />
  </edge>
  <edge function="internal" id=":1241330382_0">
    <lane id=":1241330382_0_0" index="0" length="0.10" shape="1431.86,181.64 1431.91,181.62" speed="13.41" />
  </edge>
  <edge function="internal" id=":1241330382_1">
    <lane id=":1241330382_1_0" index="0" length="0.10" shape="1430.60,178.60 1430.58,178.61" speed="13.41" />
  </edge>
  <edge function="internal" id=":1262326089_0">
    <lane id=":1262326089_0_0" index="0" length="0.10" shape="1002.18,289.60 1002.18,289.60" speed="27.78" />
  </edge>
  <edge function="internal" id=":1262326089_1">
    <lane id=":1262326089_1_0" index="0" length="0.10" shape="1000.76,286.62 1000.77,286.62" speed="27.78" />
  </edge>
  <edge function="internal" id=":1262326096_0">
    <lane id=":1262326096_0_0" index="0" length="0.19" shape="1008.51,288.46 1008.69,288.46" speed="27.78" />
  </edge>
  <edge function="internal" id=":1262326096_1">
    <lane id=":1262326096_1_0" index="0" length="0.10" shape="1008.58,291.76 1008.58,291.76" speed="27.78" />
  </edge>
  <edge function="internal" id=":1267456154_0">
    <lane id=":1267456154_0_0" index="0" length="9.49" shape="1587.32,1196.06 1584.05,1204.96" speed="13.89" />
  </edge>
  <edge function="internal" id=":1267456154_1">
    <lane id=":1267456154_1_0" index="0" length="7.03" shape="1587.32,1196.06 1586.00,1198.45 1584.18,1199.90 1582.25,1200.29" speed="13.89" />
  </edge>
  <edge function="internal" id=":1267456154_9">
    <lane id=":1267456154_9_0" index="0" length="3.30" shape="1582.25,1200.29 1581.84,1200.38 1579.00,1199.90" speed="13.89" />
  </edge>
  <edge function="internal" id=":1267456154_2">
    <lane id=":1267456154_2_0" index="0" length="2.41" shape="1587.32,1196.06 1586.12,1196.93 1585.20,1197.03" speed="13.89" />
  </edge>
  <edge function="internal" id=":1267456154_10">
    <lane id=":1267456154_10_0" index="0" length="2.41" shape="1585.20,1197.03 1584.57,1196.36 1584.23,1194.91" speed="13.89" />
  </edge>
  <edge function="internal" id=":1267456154_3">
    <lane id=":1267456154_3_0" index="0" length="5.22" shape="1579.97,1196.75 1581.44,1197.01 1582.64,1196.78 1583.57,1196.09 1584.23,1194.91" speed="13.89" />
  </edge>
  <edge function="internal" id=":1267456154_4">
    <lane id=":1267456154_4_0" index="0" length="10.59" shape="1579.97,1196.75 1582.61,1198.00 1584.17,1199.78 1584.65,1202.10 1584.05,1204.96" speed="13.89" />
  </edge>
  <edge function="internal" id=":1267456154_5">
    <lane id=":1267456154_5_0" index="0" length="4.82" shape="1579.97,1196.75 1580.91,1197.90 1581.06,1198.81 1580.42,1199.48 1579.00,1199.90" speed="13.89" />
  </edge>
  <edge function="internal" id=":1267456154_6">
    <lane id=":1267456154_6_0" index="0" length="5.06" shape="1580.95,1203.83 1581.24,1202.46 1581.01,1201.35 1580.26,1200.50 1579.00,1199.90" speed="13.89" />
  </edge>
  <edge function="internal" id=":1267456154_7">
    <lane id=":1267456154_7_0" index="0" length="9.50" shape="1580.95,1203.83 1584.23,1194.91" speed="13.89" />
  </edge>
  <edge function="internal" id=":1267456154_8">
    <lane id=":1267456154_8_0" index="0" length="2.41" shape="1580.95,1203.83 1582.15,1202.95 1583.06,1202.85" speed="13.89" />
  </edge>
  <edge function="internal" id=":1267456154_11">
    <lane id=":1267456154_11_0" index="0" length="2.41" shape="1583.06,1202.85 1583.70,1203.52 1584.05,1204.96" speed="13.89" />
  </edge>
  <edge function="internal" id=":1267456168_0">
    <lane id=":1267456168_0_0" index="0" length="4.82" shape="1538.81,1203.29 1537.66,1204.23 1536.75,1204.38 1536.08,1203.75 1535.66,1202.32" speed="13.89" />
  </edge>
  <edge function="internal" id=":1267456183_0">
    <lane id=":1267456183_0_0" index="0" length="4.82" shape="1666.53,1073.29 1665.42,1072.30 1665.12,1071.43 1665.64,1070.67 1666.98,1070.02" speed="13.89" />
  </edge>
  <edge function="internal" id=":1267456188_0">
    <lane id=":1267456188_0_0" index="0" length="0.10" shape="1547.69,1177.49 1547.73,1177.41" speed="9.72" />
  </edge>
  <edge function="internal" id=":1267456188_1">
    <lane id=":1267456188_1_0" index="0" length="2.41" shape="1547.69,1177.49 1546.42,1178.26 1545.50,1178.29" speed="5.56" />
  </edge>
  <edge function="internal" id=":1267456188_4">
    <lane id=":1267456188_4_0" index="0" length="2.41" shape="1545.50,1178.29 1544.93,1177.57 1544.70,1176.10" speed="5.56" />
  </edge>
  <edge function="internal" id=":1267456188_2">
    <lane id=":1267456188_2_0" index="0" length="0.10" shape="1544.67,1176.18 1544.70,1176.10" speed="9.72" />
  </edge>
  <edge function="internal" id=":1267456188_3">
    <lane id=":1267456188_3_0" index="0" length="2.41" shape="1544.67,1176.18 1545.90,1175.34 1546.82,1175.26" speed="13.89" />
  </edge>
  <edge function="internal" id=":1267456188_5">
    <lane id=":1267456188_5_0" index="0" length="2.41" shape="1546.82,1175.26 1547.43,1175.96 1547.73,1177.41" speed="13.89" />
  </edge>
  <edge function="internal" id=":1267456217_0">
    <lane id=":1267456217_0_0" index="0" length="4.82" shape="1572.23,1142.12 1571.40,1140.89 1571.32,1139.97 1572.02,1139.36 1573.47,1139.07" speed="5.56" />
  </edge>
  <edge function="internal" id=":1267456263_0">
    <lane id=":1267456263_0_0" index="0" length="5.23" shape="1546.47,1189.89 1545.00,1189.64 1543.82,1189.88 1542.93,1190.62 1542.33,1191.86" speed="13.89" />
  </edge>
  <edge function="internal" id=":1267456263_1">
    <lane id=":1267456263_1_0" index="0" length="10.76" shape="1546.47,1189.89 1543.78,1188.61 1542.21,1186.79 1541.79,1184.44 1542.50,1181.54" speed="13.89" />
  </edge>
  <edge function="internal" id=":1267456263_2">
    <lane id=":1267456263_2_0" index="0" length="4.82" shape="1546.47,1189.89 1545.53,1188.74 1545.38,1187.83 1546.02,1187.16 1547.45,1186.73" speed="13.89" />
  </edge>
  <edge function="internal" id=":1267456263_3">
    <lane id=":1267456263_3_0" index="0" length="5.10" shape="1545.56,1182.77 1545.22,1184.15 1545.42,1185.27 1546.17,1186.13 1547.45,1186.73" speed="13.89" />
  </edge>
  <edge function="internal" id=":1267456263_4">
    <lane id=":1267456263_4_0" index="0" length="9.64" shape="1545.56,1182.77 1542.33,1191.86" speed="13.89" />
  </edge>
  <edge function="internal" id=":1267456263_5">
    <lane id=":1267456263_5_0" index="0" length="2.41" shape="1545.56,1182.77 1544.33,1183.61 1543.41,1183.69" speed="13.89" />
  </edge>
  <edge function="internal" id=":1267456263_9">
    <lane id=":1267456263_9_0" index="0" length="2.41" shape="1543.41,1183.69 1542.80,1182.99 1542.50,1181.54" speed="13.89" />
  </edge>
  <edge function="internal" id=":1267456263_6">
    <lane id=":1267456263_6_0" index="0" length="9.93" shape="1539.17,1190.89 1542.50,1181.54" speed="13.89" />
  </edge>
  <edge function="internal" id=":1267456263_7">
    <lane id=":1267456263_7_0" index="0" length="7.37" shape="1539.17,1190.89 1540.39,1188.33 1542.18,1186.79 1544.30,1186.31" speed="13.89" />
  </edge>
  <edge function="internal" id=":1267456263_10">
    <lane id=":1267456263_10_0" index="0" length="3.19" shape="1544.30,1186.31 1544.53,1186.26 1547.45,1186.73" speed="13.89" />
  </edge>
  <edge function="internal" id=":1267456263_8">
    <lane id=":1267456263_8_0" index="0" length="2.41" shape="1539.17,1190.89 1540.32,1189.95 1541.23,1189.79" speed="13.89" />
  </edge>
  <edge function="internal" id=":1267456263_11">
    <lane id=":1267456263_11_0" index="0" length="2.41" shape="1541.23,1189.79 1541.90,1190.43 1542.33,1191.86" speed="13.89" />
  </edge>
  <edge function="internal" id=":1267456269_0">
    <lane id=":1267456269_0_0" index="0" length="9.49" shape="1727.41,1076.32 1723.79,1085.09" speed="13.89" />
  </edge>
  <edge function="internal" id=":1267456269_1">
    <lane id=":1267456269_1_0" index="0" length="6.62" shape="1727.41,1076.32 1726.07,1078.32 1724.13,1079.62 1722.30,1080.06" speed="13.89" />
  </edge>
  <edge function="internal" id=":1267456269_9">
    <lane id=":1267456269_9_0" index="0" length="3.84" shape="1722.30,1080.06 1721.60,1080.23 1718.48,1080.14" speed="13.89" />
  </edge>
  <edge function="internal" id=":1267456269_2">
    <lane id=":1267456269_2_0" index="0" length="2.41" shape="1727.41,1076.32 1726.15,1077.11 1725.23,1077.15" speed="13.89" />
  </edge>
  <edge function="internal" id=":1267456269_10">
    <lane id=":1267456269_10_0" index="0" length="2.41" shape="1725.23,1077.15 1724.65,1076.44 1724.40,1074.97" speed="13.89" />
  </edge>
  <edge function="internal" id=":1267456269_3">
    <lane id=":1267456269_3_0" index="0" length="6.23" shape="1718.90,1076.87 1720.89,1076.96 1722.47,1076.67 1723.64,1076.01 1724.40,1074.97" speed="13.89" />
  </edge>
  <edge function="internal" id=":1267456269_4">
    <lane id=":1267456269_4_0" index="0" length="11.66" shape="1718.90,1076.87 1722.10,1077.75 1723.98,1079.41 1724.54,1081.86 1723.79,1085.09" speed="13.89" />
  </edge>
  <edge function="internal" id=":1267456269_5">
    <lane id=":1267456269_5_0" index="0" length="4.82" shape="1718.90,1076.87 1720.02,1077.84 1720.33,1078.71 1719.81,1079.48 1718.48,1080.14" speed="13.89" />
  </edge>
  <edge function="internal" id=":1267456269_6">
    <lane id=":1267456269_6_0" index="0" length="5.32" shape="1720.71,1083.89 1721.06,1082.42 1720.80,1081.30 1719.94,1080.54 1718.48,1080.14" speed="13.89" />
  </edge>
  <edge function="internal" id=":1267456269_7">
    <lane id=":1267456269_7_0" index="0" length="9.65" shape="1720.71,1083.89 1724.40,1074.97" speed="13.89" />
  </edge>
  <edge function="internal" id=":1267456269_8">
    <lane id=":1267456269_8_0" index="0" length="2.41" shape="1720.71,1083.89 1721.93,1083.04 1722.85,1082.96" speed="13.89" />
  </edge>
  <edge function="internal" id=":1267456269_11">
    <lane id=":1267456269_11_0" index="0" length="2.41" shape="1722.85,1082.96 1723.47,1083.64 1723.79,1085.09" speed="13.89" />
  </edge>
  <edge function="internal" id=":1271017199_0">
    <lane id=":1271017199_0_0" index="0" length="4.82" shape="1669.33,1122.34 1668.11,1123.19 1667.19,1123.27 1666.57,1122.58 1666.26,1121.13" speed="5.56" />
  </edge>
  <edge function="internal" id=":1271017211_0">
    <lane id=":1271017211_0_0" index="0" length="5.82" shape="1691.14,1076.67 1689.83,1076.76 1688.73,1077.36 1687.81,1078.49 1687.09,1080.14" speed="9.72" />
  </edge>
  <edge function="internal" id=":1271017211_1">
    <lane id=":1271017211_1_0" index="0" length="9.59" shape="1691.14,1076.67 1681.63,1075.40" speed="13.89" />
  </edge>
  <edge function="internal" id=":1271017211_2">
    <lane id=":1271017211_2_0" index="0" length="2.41" shape="1691.14,1076.67 1690.01,1075.70 1689.71,1074.83" speed="13.89" />
  </edge>
  <edge function="internal" id=":1271017211_9">
    <lane id=":1271017211_9_0" index="0" length="2.41" shape="1689.71,1074.83 1690.22,1074.06 1691.55,1073.40" speed="13.89" />
  </edge>
  <edge function="internal" id=":1271017211_3">
    <lane id=":1271017211_3_0" index="0" length="9.55" shape="1682.09,1072.13 1691.55,1073.40" speed="13.89" />
  </edge>
  <edge function="internal" id=":1271017211_4">
    <lane id=":1271017211_4_0" index="0" length="7.22" shape="1682.09,1072.13 1685.13,1073.01 1686.98,1074.64 1687.40,1076.17" speed="9.72" />
  </edge>
  <edge function="internal" id=":1271017211_10">
    <lane id=":1271017211_10_0" index="0" length="4.04" shape="1687.40,1076.17 1687.63,1077.02 1687.09,1080.14" speed="9.72" />
  </edge>
  <edge function="internal" id=":1271017211_5">
    <lane id=":1271017211_5_0" index="0" length="2.41" shape="1682.09,1072.13 1683.20,1073.12 1683.50,1073.99" speed="13.89" />
  </edge>
  <edge function="internal" id=":1271017211_11">
    <lane id=":1271017211_11_0" index="0" length="2.41" shape="1683.50,1073.99 1682.97,1074.75 1681.63,1075.40" speed="13.89" />
  </edge>
  <edge function="internal" id=":1271017211_6">
    <lane id=":1271017211_6_0" index="0" length="5.23" shape="1683.95,1079.11 1684.21,1077.67 1683.90,1076.56 1683.05,1075.81 1681.63,1075.40" speed="9.72" />
  </edge>
  <edge function="internal" id=":1271017211_7">
    <lane id=":1271017211_7_0" index="0" length="10.43" shape="1683.95,1079.11 1685.21,1076.35 1686.90,1074.48 1689.01,1073.49 1691.55,1073.40" speed="9.72" />
  </edge>
  <edge function="internal" id=":1271017211_8">
    <lane id=":1271017211_8_0" index="0" length="4.82" shape="1683.95,1079.11 1685.12,1078.19 1686.03,1078.06 1686.69,1078.71 1687.09,1080.14" speed="5.56" />
  </edge>
  <edge function="internal" id=":1271017220_0">
    <lane id=":1271017220_0_0" index="0" length="17.19" shape="1752.31,1157.62 1754.25,1151.48 1754.22,1148.85 1752.22,1149.73 1748.23,1154.13" speed="27.78" />
  </edge>
  <edge function="internal" id=":1271017220_1">
    <lane id=":1271017220_1_0" index="0" length="4.63" shape="1752.31,1157.62 1750.65,1161.93" speed="27.78" />
  </edge>
  <edge function="internal" id=":1271017220_2">
    <lane id=":1271017220_2_0" index="0" length="5.72" shape="1749.64,1155.33 1747.60,1160.68" speed="27.78" />
  </edge>
  <edge function="internal" id=":1271017220_3">
    <lane id=":1271017220_3_0" index="0" length="2.54" shape="1749.64,1155.33 1748.14,1155.80 1747.19,1155.59" speed="27.78" />
  </edge>
  <edge function="internal" id=":1271017220_8">
    <lane id=":1271017220_8_0" index="0" length="2.54" shape="1747.19,1155.59 1746.79,1154.70 1746.93,1153.14" speed="27.78" />
  </edge>
  <edge function="internal" id=":1271017220_4">
    <lane id=":1271017220_4_0" index="0" length="2.23" shape="1741.50,1158.16 1742.32,1156.08" speed="27.78" />
  </edge>
  <edge function="internal" id=":1271017220_5">
    <lane id=":1271017220_5_0" index="0" length="6.72" shape="1744.55,1159.42 1746.93,1153.14" speed="27.78" />
  </edge>
  <edge function="internal" id=":1271017220_6">
    <lane id=":1271017220_6_0" index="0" length="6.95" shape="1744.55,1159.42 1750.74,1156.27" speed="27.78" />
  </edge>
  <edge function="internal" id=":1271017220_7">
    <lane id=":1271017220_7_0" index="0" length="2.41" shape="1744.55,1159.42 1745.78,1158.59 1746.70,1158.52" speed="27.78" />
  </edge>
  <edge function="internal" id=":1271017220_9">
    <lane id=":1271017220_9_0" index="0" length="2.41" shape="1746.70,1158.52 1747.31,1159.22 1747.60,1160.68" speed="27.78" />
  </edge>
  <edge function="internal" id=":1278385134_0">
    <lane id=":1278385134_0_0" index="0" length="0.10" shape="1242.99,823.44 1242.91,823.51" speed="22.22" />
  </edge>
  <edge function="internal" id=":1278385134_1">
    <lane id=":1278385134_1_0" index="0" length="2.41" shape="1242.99,823.44 1241.51,823.58 1240.66,823.20" speed="22.22" />
  </edge>
  <edge function="internal" id=":1278385134_4">
    <lane id=":1278385134_4_0" index="0" length="2.41" shape="1240.66,823.20 1240.46,822.30 1240.90,820.88" speed="22.22" />
  </edge>
  <edge function="internal" id=":1278385134_2">
    <lane id=":1278385134_2_0" index="0" length="0.31" shape="1240.67,821.08 1240.90,820.88" speed="22.22" />
  </edge>
  <edge function="internal" id=":1278385134_3">
    <lane id=":1278385134_3_0" index="0" length="2.41" shape="1240.67,821.08 1242.14,820.85 1243.00,821.18" speed="22.22" />
  </edge>
  <edge function="internal" id=":1278385134_5">
    <lane id=":1278385134_5_0" index="0" length="2.41" shape="1243.00,821.18 1243.26,822.06 1242.91,823.51" speed="22.22" />
  </edge>
  <edge function="internal" id=":1279538120_0">
    <lane id=":1279538120_0_0" index="0" length="7.24" shape="1213.27,840.46 1215.53,841.85 1217.37,842.59 1218.81,842.68 1219.83,842.13" speed="18.06" />
  </edge>
  <edge function="internal" id=":1279538120_1">
    <lane id=":1279538120_1_0" index="0" length="10.09" shape="1213.27,840.46 1216.42,842.86 1218.43,844.91 1219.30,846.60 1219.04,847.93" speed="18.06" />
  </edge>
  <edge function="internal" id=":1279538120_2">
    <lane id=":1279538120_2_0" index="0" length="13.86" shape="1213.27,840.46 1217.40,839.32 1219.97,839.98 1220.98,842.43 1220.45,846.67" speed="13.89" />
  </edge>
  <edge function="internal" id=":1279538120_3">
    <lane id=":1279538120_3_0" index="0" length="4.79" shape="1222.25,844.38 1219.04,847.93" speed="22.22" />
  </edge>
  <edge function="internal" id=":1279538120_4">
    <lane id=":1279538120_4_0" index="0" length="2.94" shape="1222.25,844.38 1221.40,845.31 1220.82,846.00 1220.50,846.45 1220.45,846.67" speed="18.06" />
  </edge>
  <edge function="internal" id=":1279538120_5">
    <lane id=":1279538120_5_0" index="0" length="2.41" shape="1222.25,844.38 1220.80,844.72 1219.91,844.46" speed="22.22" />
  </edge>
  <edge function="internal" id=":1279538120_9">
    <lane id=":1279538120_9_0" index="0" length="2.41" shape="1219.91,844.46 1219.59,843.59 1219.83,842.13" speed="22.22" />
  </edge>
  <edge function="internal" id=":1279538120_6">
    <lane id=":1279538120_6_0" index="0" length="4.84" shape="1216.36,846.00 1217.26,845.16 1218.23,844.99 1219.30,845.49 1220.30,846.53" speed="18.06" />
  </edge>
  <edge function="internal" id=":1279538120_10">
    <lane id=":1279538120_10_0" index="0" length="0.20" shape="1220.30,846.53 1220.45,846.67" speed="18.06" />
  </edge>
  <edge function="internal" id=":1279538120_7">
    <lane id=":1279538120_7_0" index="0" length="5.20" shape="1216.36,846.00 1219.83,842.13" speed="22.22" />
  </edge>
  <edge function="internal" id=":1279538120_8">
    <lane id=":1279538120_8_0" index="0" length="2.41" shape="1216.36,846.00 1217.75,845.48 1218.66,845.63" speed="22.22" />
  </edge>
  <edge function="internal" id=":1279538120_11">
    <lane id=":1279538120_11_0" index="0" length="2.41" shape="1218.66,845.63 1219.09,846.44 1219.04,847.93" speed="22.22" />
  </edge>
  <edge function="internal" id=":1279538222_0">
    <lane id=":1279538222_0_0" index="0" length="0.11" shape="1184.53,895.82 1184.47,895.91" speed="22.22" />
  </edge>
  <edge function="internal" id=":1279538222_1">
    <lane id=":1279538222_1_0" index="0" length="2.41" shape="1184.53,895.82 1183.13,896.34 1182.22,896.20" speed="22.22" />
  </edge>
  <edge function="internal" id=":1279538222_4">
    <lane id=":1279538222_4_0" index="0" length="2.41" shape="1182.22,896.20 1181.80,895.38 1181.85,893.89" speed="22.22" />
  </edge>
  <edge function="internal" id=":1279538222_2">
    <lane id=":1279538222_2_0" index="0" length="0.33" shape="1181.67,894.17 1181.85,893.89" speed="22.22" />
  </edge>
  <edge function="internal" id=":1279538222_3">
    <lane id=":1279538222_3_0" index="0" length="2.41" shape="1181.67,894.17 1183.02,893.55 1183.94,893.64" speed="22.22" />
  </edge>
  <edge function="internal" id=":1279538222_5">
    <lane id=":1279538222_5_0" index="0" length="2.41" shape="1183.94,893.64 1184.42,894.42 1184.47,895.91" speed="22.22" />
  </edge>
  <edge function="internal" id=":1298440846_0">
    <lane id=":1298440846_0_0" index="0" length="9.34" shape="1605.07,1148.55 1601.67,1157.25" speed="13.89" />
  </edge>
  <edge function="internal" id=":1298440846_1">
    <lane id=":1298440846_1_0" index="0" length="6.98" shape="1605.07,1148.55 1603.59,1150.97 1601.70,1152.37 1599.93,1152.65" speed="9.72" />
  </edge>
  <edge function="internal" id=":1298440846_9">
    <lane id=":1298440846_9_0" index="0" length="3.31" shape="1599.93,1152.65 1599.41,1152.73 1596.71,1152.06" speed="9.72" />
  </edge>
  <edge function="internal" id=":1298440846_2">
    <lane id=":1298440846_2_0" index="0" length="2.41" shape="1605.07,1148.55 1603.84,1149.38 1602.92,1149.46" speed="13.89" />
  </edge>
  <edge function="internal" id=":1298440846_10">
    <lane id=":1298440846_10_0" index="0" length="2.41" shape="1602.92,1149.46 1602.31,1148.76 1602.01,1147.31" speed="13.89" />
  </edge>
  <edge function="internal" id=":1298440846_3">
[...]
  <connection dir="s" from=":60023467_12" fromLane="0" state="M" to="-37040755" toLane="0" />
  <connection dir="s" from=":60023467_13" fromLane="0" state="M" to="-43049994#5" toLane="0" />
  <connection dir="s" from=":60023467_14" fromLane="0" state="M" to="-31527671#2" toLane="1" />
  <connection dir="s" from=":60023467_15" fromLane="0" state="M" to="66177857#0" toLane="1" via=":60023467_24_0" />
  <connection dir="s" from=":60023467_24" fromLane="0" state="M" to="66177857#0" toLane="1" />
  <connection dir="s" from=":60023468_0" fromLane="0" state="M" to="-43049994#3" toLane="0" />
  <connection dir="s" from=":60023468_1" fromLane="0" state="M" to="8030636#0" toLane="0" via=":60023468_9_0" />
  <connection dir="s" from=":60023468_9" fromLane="0" state="M" to="8030636#0" toLane="0" />
  <connection dir="s" from=":60023468_2" fromLane="0" state="M" to="43049994#4" toLane="0" via=":60023468_10_0" />
  <connection dir="s" from=":60023468_10" fromLane="0" state="M" to="43049994#4" toLane="0" />
  <connection dir="s" from=":60023468_3" fromLane="0" state="M" to="43049994#4" toLane="0" />
  <connection dir="s" from=":60023468_4" fromLane="0" state="M" to="-43049994#3" toLane="0" />
  <connection dir="s" from=":60023468_5" fromLane="0" state="M" to="8030636#0" toLane="0" />
  <connection dir="s" from=":60023468_6" fromLane="0" state="M" to="8030636#0" toLane="0" />
  <connection dir="s" from=":60023468_7" fromLane="0" state="M" to="43049994#4" toLane="0" />
  <connection dir="s" from=":60023468_8" fromLane="0" state="M" to="-43049994#3" toLane="0" via=":60023468_11_0" />
  <connection dir="s" from=":60023468_11" fromLane="0" state="M" to="-43049994#3" toLane="0" />
  <connection dir="s" from=":60023469_0" fromLane="0" state="M" to="-43049994#2" toLane="0" />
  <connection dir="s" from=":60023469_1" fromLane="0" state="M" to="8030635" toLane="0" via=":60023469_9_0" />
  <connection dir="s" from=":60023469_9" fromLane="0" state="M" to="8030635" toLane="0" />
  <connection dir="s" from=":60023469_2" fromLane="0" state="M" to="43049994#3" toLane="0" via=":60023469_10_0" />
  <connection dir="s" from=":60023469_10" fromLane="0" state="M" to="43049994#3" toLane="0" />
  <connection dir="s" from=":60023469_3" fromLane="0" state="M" to="43049994#3" toLane="0" />
  <connection dir="s" from=":60023469_4" fromLane="0" state="M" to="-43049994#2" toLane="0" />
  <connection dir="s" from=":60023469_5" fromLane="0" state="M" to="8030635" toLane="0" />
  <connection dir="s" from=":60023469_6" fromLane="0" state="M" to="8030635" toLane="0" />
  <connection dir="s" from=":60023469_7" fromLane="0" state="M" to="43049994#3" toLane="0" />
  <connection dir="s" from=":60023469_8" fromLane="0" state="M" to="-43049994#2" toLane="0" via=":60023469_11_0" />
  <connection dir="s" from=":60023469_11" fromLane="0" state="M" to="-43049994#2" toLane="0" />
  <connection dir="s" from=":60023470_0" fromLane="0" state="M" to="-46820858" toLane="0" />
  <connection dir="s" from=":60023470_1" fromLane="0" state="M" to="30787571" toLane="0" />
  <connection dir="s" from=":60023470_2" fromLane="0" state="M" to="-8030636#3" toLane="0" />
  <connection dir="s" from=":60023470_3" fromLane="0" state="M" to="-8030636#3" toLane="0" />
  <connection dir="s" from=":60023470_4" fromLane="0" state="M" to="-46820858" toLane="0" />
  <connection dir="s" from=":60023470_5" fromLane="0" state="M" to="30787571" toLane="0" via=":60023470_9_0" />
  <connection dir="s" from=":60023470_9" fromLane="0" state="M" to="30787571" toLane="0" />
  <connection dir="s" from=":60023470_6" fromLane="0" state="M" to="30787571" toLane="0" />
  <connection dir="s" from=":60023470_7" fromLane="0" state="M" to="-8030636#3" toLane="0" via=":60023470_10_0" />
  <connection dir="s" from=":60023470_10" fromLane="0" state="M" to="-8030636#3" toLane="0" />
  <connection dir="s" from=":60023470_8" fromLane="0" state="M" to="-46820858" toLane="0" via=":60023470_11_0" />
  <connection dir="s" from=":60023470_11" fromLane="0" state="M" to="-46820858" toLane="0" />
  <connection dir="s" from=":60023472_0" fromLane="0" state="M" to="-43049994#4" toLane="0" />
  <connection dir="s" from=":60023472_1" fromLane="0" state="M" to="-29157766#2" toLane="0" via=":60023472_9_0" />
  <connection dir="s" from=":60023472_9" fromLane="0" state="M" to="-29157766#2" toLane="0" />
  <connection dir="s" from=":60023472_2" fromLane="0" state="M" to="43049994#5" toLane="0" via=":60023472_10_0" />
  <connection dir="s" from=":60023472_10" fromLane="0" state="M" to="43049994#5" toLane="0" />
  <connection dir="s" from=":60023472_3" fromLane="0" state="M" to="43049994#5" toLane="0" />
  <connection dir="s" from=":60023472_4" fromLane="0" state="M" to="-43049994#4" toLane="0" />
  <connection dir="s" from=":60023472_5" fromLane="0" state="M" to="-29157766#2" toLane="0" />
  <connection dir="s" from=":60023472_6" fromLane="0" state="M" to="-29157766#2" toLane="0" />
  <connection dir="s" from=":60023472_7" fromLane="0" state="M" to="43049994#5" toLane="0" />
  <connection dir="s" from=":60023472_8" fromLane="0" state="M" to="-43049994#4" toLane="0" via=":60023472_11_0" />
  <connection dir="s" from=":60023472_11" fromLane="0" state="M" to="-43049994#4" toLane="0" />
  <connection dir="s" from=":60023939_0" fromLane="0" state="M" to="14793129#0" toLane="0" />
  <connection dir="s" from=":60023939_1" fromLane="0" state="M" to="14793129#0" toLane="1" />
  <connection dir="s" from=":60023939_2" fromLane="0" state="M" to="13969850#0" toLane="0" />
  <connection dir="s" from=":60023945_0" fromLane="0" state="M" to="13969850#1" toLane="0" />
  <connection dir="s" from=":60023945_1" fromLane="0" state="M" to="8030687#0" toLane="0" />
  <connection dir="s" from=":60023945_2" fromLane="0" state="M" to="14793627#0" toLane="0" via=":60023945_9_0" />
  <connection dir="s" from=":60023945_9" fromLane="0" state="M" to="14793627#0" toLane="0" />
  <connection dir="s" from=":60023945_3" fromLane="0" state="M" to="14793627#0" toLane="0" />
  <connection dir="s" from=":60023945_4" fromLane="0" state="M" to="13969850#1" toLane="0" />
  <connection dir="s" from=":60023945_5" fromLane="0" state="M" to="8030687#0" toLane="0" />
  <connection dir="s" from=":60023945_6" fromLane="0" state="M" to="14793627#0" toLane="0" />
  <connection dir="s" from=":60023945_7" fromLane="0" state="M" to="13969850#1" toLane="0" via=":60023945_10_0" />
  <connection dir="s" from=":60023945_10" fromLane="0" state="M" to="13969850#1" toLane="0" />
  <connection dir="s" from=":60023945_8" fromLane="0" state="M" to="8030687#0" toLane="0" via=":60023945_11_0" />
  <connection dir="s" from=":60023945_11" fromLane="0" state="M" to="8030687#0" toLane="0" />
  <connection dir="s" from=":60023950_0" fromLane="0" state="M" to="-169735167" toLane="0" />
  <connection dir="s" from=":60023950_1" fromLane="0" state="M" to="-8030687#2" toLane="0" />
  <connection dir="s" from=":60023950_2" fromLane="0" state="M" to="23304531" toLane="0" via=":60023950_16_0" />
  <connection dir="s" from=":60023950_16" fromLane="0" state="M" to="23304531" toLane="0" />
  <connection dir="s" from=":60023950_3" fromLane="0" state="M" to="23304466#0" toLane="0" via=":60023950_17_0" />
  <connection dir="s" from=":60023950_17" fromLane="0" state="M" to="23304466#0" toLane="0" />
  <connection dir="s" from=":60023950_4" fromLane="0" state="M" to="23304466#0" toLane="0" />
  <connection dir="s" from=":60023950_5" fromLane="0" state="M" to="-169735167" toLane="0" />
  <connection dir="s" from=":60023950_6" fromLane="0" state="M" to="-8030687#2" toLane="0" via=":60023950_18_0" />
  <connection dir="s" from=":60023950_18" fromLane="0" state="M" to="-8030687#2" toLane="0" />
  <connection dir="s" from=":60023950_7" fromLane="0" state="M" to="23304531" toLane="0" via=":60023950_19_0" />
  <connection dir="s" from=":60023950_19" fromLane="0" state="M" to="23304531" toLane="0" />
  <connection dir="s" from=":60023950_8" fromLane="0" state="M" to="23304531" toLane="0" />
  <connection dir="s" from=":60023950_9" fromLane="0" state="M" to="23304466#0" toLane="0" />
  <connection dir="s" from=":60023950_10" fromLane="0" state="M" to="-169735167" toLane="0" via=":60023950_20_0" />
  <connection dir="s" from=":60023950_20" fromLane="0" state="M" to="-169735167" toLane="0" />
  <connection dir="s" from=":60023950_11" fromLane="0" state="M" to="-8030687#2" toLane="0" via=":60023950_21_0" />
  <connection dir="s" from=":60023950_21" fromLane="0" state="M" to="-8030687#2" toLane="0" />
  <connection dir="s" from=":60023950_12" fromLane="0" state="M" to="-8030687#2" toLane="0" />
  <connection dir="s" from=":60023950_13" fromLane="0" state="M" to="23304531" toLane="0" />
  <connection dir="s" from=":60023950_14" fromLane="0" state="M" to="23304466#0" toLane="0" via=":60023950_22_0" />
  <connection dir="s" from=":60023950_22" fromLane="0" state="M" to="23304466#0" toLane="0" />
  <connection dir="s" from=":60023950_15" fromLane="0" state="M" to="-169735167" toLane="0" via=":60023950_23_0" />
  <connection dir="s" from=":60023950_23" fromLane="0" state="M" to="-169735167" toLane="0" />
  <connection dir="s" from=":727429892_0" fromLane="0" state="M" to="58702705" toLane="0" />
  <connection dir="s" from=":727429903_0" fromLane="0" state="M" to="-31528538#0" toLane="0" />
  <connection dir="s" from=":727429903_1" fromLane="0" state="M" to="-58702705" toLane="0" via=":727429903_9_0" />
  <connection dir="s" from=":727429903_9" fromLane="0" state="M" to="-58702705" toLane="0" />
  <connection dir="s" from=":727429903_2" fromLane="0" state="M" to="31528538#1" toLane="0" via=":727429903_10_0" />
  <connection dir="s" from=":727429903_10" fromLane="0" state="M" to="31528538#1" toLane="0" />
  <connection dir="s" from=":727429903_3" fromLane="0" state="M" to="31528538#1" toLane="0" />
  <connection dir="s" from=":727429903_4" fromLane="0" state="M" to="-31528538#0" toLane="0" />
  <connection dir="s" from=":727429903_5" fromLane="0" state="M" to="-58702705" toLane="0" />
  <connection dir="s" from=":727429903_6" fromLane="0" state="M" to="-58702705" toLane="0" />
  <connection dir="s" from=":727429903_7" fromLane="0" state="M" to="31528538#1" toLane="0" />
  <connection dir="s" from=":727429903_8" fromLane="0" state="M" to="-31528538#0" toLane="0" via=":727429903_11_0" />
  <connection dir="s" from=":727429903_11" fromLane="0" state="M" to="-31528538#0" toLane="0" />
  <connection dir="s" from=":790398624_0" fromLane="0" state="M" to="-111590860#1" toLane="0" />
  <connection dir="s" from=":790398624_1" fromLane="0" state="M" to="-111590860#1" toLane="1" />
  <connection dir="s" from=":790398624_2" fromLane="0" state="M" to="-64103070" toLane="0" via=":790398624_11_0" />
  <connection dir="s" from=":790398624_11" fromLane="0" state="M" to="-64103070" toLane="0" />
  <connection dir="s" from=":790398624_3" fromLane="0" state="M" to="111590860#2" toLane="1" via=":790398624_12_0" />
  <connection dir="s" from=":790398624_12" fromLane="0" state="M" to="111590860#2" toLane="1" />
  <connection dir="s" from=":790398624_4" fromLane="0" state="M" to="111590860#2" toLane="0" />
  <connection dir="s" from=":790398624_5" fromLane="0" state="M" to="-111590860#1" toLane="1" />
  <connection dir="s" from=":790398624_6" fromLane="0" state="M" to="-64103070" toLane="0" />
  <connection dir="s" from=":790398624_7" fromLane="0" state="M" to="-64103070" toLane="0" />
  <connection dir="s" from=":790398624_8" fromLane="0" state="M" to="111590860#2" toLane="0" />
  <connection dir="s" from=":790398624_9" fromLane="0" state="M" to="111590860#2" toLane="1" />
  <connection dir="s" from=":790398624_10" fromLane="0" state="M" to="-111590860#1" toLane="1" via=":790398624_13_0" />
  <connection dir="s" from=":790398624_13" fromLane="0" state="M" to="-111590860#1" toLane="1" />
  <connection dir="s" from=":790398632_0" fromLane="0" state="M" to="40685615#3" toLane="0" />
  <connection dir="s" from=":790398632_1" fromLane="0" state="M" to="-40685615#2" toLane="1" />
  <connection dir="s" from=":790398632_2" fromLane="0" state="M" to="64103070" toLane="0" />
  <connection dir="s" from=":790398632_3" fromLane="0" state="M" to="64103070" toLane="0" />
  <connection dir="s" from=":790398632_4" fromLane="0" state="M" to="40685615#3" toLane="0" />
  <connection dir="s" from=":790398632_5" fromLane="0" state="M" to="40685615#3" toLane="1" />
  <connection dir="s" from=":790398632_6" fromLane="0" state="M" to="-40685615#2" toLane="1" via=":790398632_11_0" />
  <connection dir="s" from=":790398632_11" fromLane="0" state="M" to="-40685615#2" toLane="1" />
  <connection dir="s" from=":790398632_7" fromLane="0" state="M" to="-40685615#2" toLane="0" />
  <connection dir="s" from=":790398632_8" fromLane="0" state="M" to="-40685615#2" toLane="1" />
  <connection dir="s" from=":790398632_9" fromLane="0" state="M" to="64103070" toLane="0" via=":790398632_12_0" />
  <connection dir="s" from=":790398632_12" fromLane="0" state="M" to="64103070" toLane="0" />
  <connection dir="s" from=":790398632_10" fromLane="0" state="M" to="40685615#3" toLane="1" via=":790398632_13_0" />
  <connection dir="s" from=":790398632_13" fromLane="0" state="M" to="40685615#3" toLane="1" />
  <connection dir="s" from=":807652888_0" fromLane="0" state="M" to="8031466#1" toLane="0" />
  <connection dir="s" from=":807652888_1" fromLane="0" state="M" to="8031466#1" toLane="1" />
  <connection dir="s" from=":807652888_2" fromLane="0" state="M" to="66825014" toLane="0" />
  <connection dir="s" from=":807932699_0" fromLane="0" state="M" to="-10764102" toLane="0" />
  <connection dir="s" from=":813272813_0" fromLane="0" state="M" to="67333277#0" toLane="0" />
  <connection dir="s" from=":813272813_1" fromLane="0" state="M" to="-119639594#2" toLane="0" />
  <connection dir="s" from=":813272813_2" fromLane="0" state="M" to="119639594#3" toLane="0" />
  <connection dir="s" from=":813272813_3" fromLane="0" state="M" to="119639594#3" toLane="0" />
  <connection dir="s" from=":813272813_4" fromLane="0" state="M" to="67333277#0" toLane="0" />
  <connection dir="s" from=":813272813_5" fromLane="0" state="M" to="-119639594#2" toLane="0" />
  <connection dir="s" from=":813272813_6" fromLane="0" state="M" to="-119639594#2" toLane="0" />
  <connection dir="s" from=":813272813_7" fromLane="0" state="M" to="119639594#3" toLane="0" />
  <connection dir="s" from=":813272813_8" fromLane="0" state="M" to="67333277#0" toLane="0" />
  <connection dir="s" from=":813272828_0" fromLane="0" state="M" to="-67333287" toLane="1" />
  <connection dir="s" from=":813272846_0" fromLane="0" state="M" to="-119639602#3" toLane="0" />
  <connection dir="s" from=":813272846_1" fromLane="0" state="M" to="-67333277#0" toLane="0" />
  <connection dir="s" from=":813272846_2" fromLane="0" state="M" to="67333277#1" toLane="0" />
  <connection dir="s" from=":813272846_3" fromLane="0" state="M" to="67333277#1" toLane="0" />
  <connection dir="s" from=":813272846_4" fromLane="0" state="M" to="-119639602#3" toLane="0" />
  <connection dir="s" from=":813272846_5" fromLane="0" state="M" to="-67333277#0" toLane="0" />
  <connection dir="s" from=":813272846_6" fromLane="0" state="M" to="-67333277#0" toLane="0" />
  <connection dir="s" from=":813272846_7" fromLane="0" state="M" to="67333277#1" toLane="0" />
  <connection dir="s" from=":813272846_8" fromLane="0" state="M" to="-119639602#3" toLane="0" />
  <connection dir="s" from=":813272856_0" fromLane="0" state="M" to="-111590860#3" toLane="0" />
  <connection dir="s" from=":813272856_1" fromLane="0" state="M" to="-111590860#3" toLane="1" />
  <connection dir="s" from=":813272856_2" fromLane="0" state="M" to="67333275#0" toLane="0" />
  <connection dir="s" from=":813272856_3" fromLane="0" state="M" to="67333275#0" toLane="0" />
  <connection dir="s" from=":813272856_4" fromLane="0" state="M" to="-111590860#3" toLane="1" />
  <connection dir="s" from=":813272867_0" fromLane="0" state="M" to="-67333277#1" toLane="0" />
  <connection dir="s" from=":813272891_0" fromLane="0" state="M" to="67333275#2" toLane="0" />
  <connection dir="s" from=":813272891_1" fromLane="0" state="M" to="-67333275#1" toLane="0" via=":813272891_4_0" />
  <connection dir="s" from=":813272891_4" fromLane="0" state="M" to="-67333275#1" toLane="0" />
  <connection dir="s" from=":813272891_2" fromLane="0" state="M" to="-67333275#1" toLane="0" />
  <connection dir="s" from=":813272891_3" fromLane="0" state="M" to="67333275#2" toLane="0" via=":813272891_5_0" />
  <connection dir="s" from=":813272891_5" fromLane="0" state="M" to="67333275#2" toLane="0" />
  <connection dir="s" from=":813272909_0" fromLane="0" state="M" to="67333275#1" toLane="0" />
  <connection dir="s" from=":813272909_1" fromLane="0" state="M" to="-67333275#2" toLane="0" />
  <connection dir="s" from=":813272909_2" fromLane="0" state="M" to="-67333275#0" toLane="0" />
  <connection dir="s" from=":813272909_3" fromLane="0" state="M" to="-67333275#0" toLane="0" />
  <connection dir="s" from=":813272909_4" fromLane="0" state="M" to="67333275#1" toLane="0" />
  <connection dir="s" from=":813272909_5" fromLane="0" state="M" to="-67333275#2" toLane="0" />
  <connection dir="s" from=":813272909_6" fromLane="0" state="M" to="-67333275#2" toLane="0" />
  <connection dir="s" from=":813272909_7" fromLane="0" state="M" to="-67333275#0" toLane="0" />
  <connection dir="s" from=":813272909_8" fromLane="0" state="M" to="67333275#1" toLane="0" />
  <connection dir="s" from=":813272948_0" fromLane="0" state="M" to="66177857#1" toLane="0" />
  <connection dir="s" from=":813272948_1" fromLane="0" state="M" to="66177857#1" toLane="1" />
  <connection dir="s" from=":813272948_2" fromLane="0" state="M" to="-119639594#3" toLane="0" via=":813272948_11_0" />
  <connection dir="s" from=":813272948_11" fromLane="0" state="M" to="-119639594#3" toLane="0" />
  <connection dir="s" from=":813272948_3" fromLane="0" state="M" to="-66177857#0" toLane="1" via=":813272948_12_0" />
  <connection dir="s" from=":813272948_12" fromLane="0" state="M" to="-66177857#0" toLane="1" />
  <connection dir="s" from=":813272948_4" fromLane="0" state="M" to="-66177857#0" toLane="0" />
  <connection dir="s" from=":813272948_5" fromLane="0" state="M" to="66177857#1" toLane="1" />
  <connection dir="s" from=":813272948_6" fromLane="0" state="M" to="-119639594#3" toLane="0" />
  <connection dir="s" from=":813272948_7" fromLane="0" state="M" to="-119639594#3" toLane="0" />
  <connection dir="s" from=":813272948_8" fromLane="0" state="M" to="-66177857#0" toLane="0" />
  <connection dir="s" from=":813272948_9" fromLane="0" state="M" to="-66177857#0" toLane="1" />
  <connection dir="s" from=":813272948_10" fromLane="0" state="M" to="66177857#1" toLane="1" via=":813272948_13_0" />
  <connection dir="s" from=":813272948_13" fromLane="0" state="M" to="66177857#1" toLane="1" />
  <connection dir="s" from=":910560352_0" fromLane="0" state="M" to="-43049694" toLane="0" />
  <connection dir="s" from=":95845334_0" fromLane="0" state="M" to="4211801#7" toLane="0" />
  <connection dir="s" from=":95845334_1" fromLane="0" state="M" to="4211801#7" toLane="1" />
  <connection dir="s" from=":95845334_2" fromLane="0" state="M" to="10761869" toLane="0" />
  <connection dir="s" from=":95845334_3" fromLane="0" state="M" to="4211801#7" toLane="1" />
  <connection dir="s" from=":95845334_4" fromLane="0" state="M" to="10761869" toLane="0" />
  <connection dir="s" from=":95845428_0" fromLane="0" state="M" to="-10761869" toLane="0" />
  <connection dir="s" from=":95859739_0" fromLane="0" state="M" to="134906302#1" toLane="0" />
  <connection dir="s" from=":95859739_1" fromLane="0" state="M" to="10764095" toLane="0" />
  <connection dir="s" from=":95859739_2" fromLane="0" state="M" to="134906302#1" toLane="0" />
  <connection dir="s" from=":95859739_3" fromLane="0" state="M" to="10764095" toLane="0" />
</net>
